Alanine N-terminal cation
 OpenBabel04140706513D

 18 17  0  0  0  0  0  0  0  0999 V2000
   -2.0710   -0.8070   -0.1230 N   0  0  0  0  0
   -3.0030   -0.4870   -0.3440 H   0  0  0  0  0
   -2.0220   -1.0500    0.8550 H   0  0  0  0  0
   -1.8540   -1.6180   -0.6830 H   0  0  0  0  0
   -1.1050    0.2610   -0.4120 C   0  0  0  0  0
   -1.1590    0.5230   -1.4690 H   0  0  0  0  0
   -1.4350    1.4900    0.4360 C   0  0  0  0  0
    0.2860   -0.2180   -0.0830 C   0  0  0  0  0
    0.4550   -1.3380    0.3490 O   0  0  0  0  0
    1.3410    0.5990   -0.2700 N   0  0  0  0  0
    2.6930    0.1340    0.0500 C   0  0  0  0  0
   -0.7180    2.2830    0.2220 H   0  0  0  0  0
   -2.4410    1.8360    0.1990 H   0  0  0  0  0
   -1.3820    1.2280    1.4930 H   0  0  0  0  0
    1.2050    1.4950   -0.6160 H   0  0  0  0  0
    3.4100    0.9270   -0.1640 H   0  0  0  0  0
    2.7470   -0.1280    1.1060 H   0  0  0  0  0
    2.9280   -0.7420   -0.5550 H   0  0  0  0  0
  1  2  1  0  0  0
  1  3  1  0  0  0
  1  4  1  0  0  0
  1  5  1  0  0  0
  5  6  1  0  0  0
  5  7  1  0  0  0
  5  8  1  0  0  0
  7 12  1  0  0  0
  7 13  1  0  0  0
  7 14  1  0  0  0
  8  9  2  0  0  0
  8 10  1  0  0  0
 10 11  1  0  0  0
 10 15  1  0  0  0
 11 16  1  0  0  0
 11 17  1  0  0  0
 11 18  1  0  0  0
M  CHG  1   1   1
M  END
