Asparagine C-terminal anion
 OpenBabel04140706523D

 21 20  0  0  0  0  0  0  0  0999 V2000
   -2.1390    2.4960    0.6800 C   0  0  0  0  0
   -1.5400    1.3270   -0.0590 C   0  0  0  0  0
   -1.9400    1.0410   -1.1680 O   0  0  0  0  0
   -0.5590    0.6000    0.5110 N   0  0  0  0  0
    0.0230   -0.5370   -0.2070 C   0  0  0  0  0
    0.0570   -0.3130   -1.2740 H   0  0  0  0  0
    1.4410   -0.7920    0.3060 C   0  0  0  0  0
    2.3180    0.3860   -0.0340 C   0  0  0  0  0
    1.8540    1.3360   -0.6270 O   0  0  0  0  0
    3.6180    0.3830    0.3230 N   0  0  0  0  0
   -0.8230   -1.7630    0.0220 C   0  0  0  0  0
   -1.8200   -1.6940    0.7210 O   0  0  0  0  0
   -0.5100   -2.8240   -0.4920 O   0  0  0  0  0
   -2.9100    2.9580    0.0650 H   0  0  0  0  0
   -2.5790    2.1480    1.6150 H   0  0  0  0  0
   -1.3590    3.2270    0.8960 H   0  0  0  0  0
   -0.2390    0.8280    1.3980 H   0  0  0  0  0
    1.4180   -0.9280    1.3870 H   0  0  0  0  0
    1.8420   -1.6900   -0.1650 H   0  0  0  0  0
    3.9890   -0.3770    0.7980 H   0  0  0  0  0
    4.1820    1.1420    0.1040 H   0  0  0  0  0
  1  2  1  0  0  0
  1 14  1  0  0  0
  1 15  1  0  0  0
  1 16  1  0  0  0
  2  3  2  0  0  0
  2  4  1  0  0  0
  4  5  1  0  0  0
  4 17  1  0  0  0
  5  6  1  0  0  0
  5  7  1  0  0  0
  5 11  1  0  0  0
  7  8  1  0  0  0
  7 18  1  0  0  0
  7 19  1  0  0  0
  8  9  2  0  0  0
  8 10  1  0  0  0
 10 20  1  0  0  0
 10 21  1  0  0  0
 11 12  2  0  0  0
 11 13  1  0  0  0
M  CHG  1  13  -1
M  END
