Cysteine C-terminal anion
 OpenBabel04140706523D

 18 17  0  0  0  0  0  0  0  0999 V2000
    2.4780    2.0590   -0.5520 C   0  0  0  0  0
    1.6200    1.0340    0.1440 C   0  0  0  0  0
    1.9420    0.6130    1.2350 O   0  0  0  0  0
    0.4950    0.5850   -0.4460 N   0  0  0  0  0
   -0.3390   -0.4120    0.2300 C   0  0  0  0  0
   -0.3190   -0.2340    1.3050 H   0  0  0  0  0
   -1.7790   -0.3020   -0.2780 C   0  0  0  0  0
   -2.4180    1.3590    0.0720 S   0  0  0  0  0
    0.1920   -1.7920   -0.0600 C   0  0  0  0  0
    1.2210   -1.9370   -0.7990 O   0  0  0  0  0
   -0.3880   -2.8150    0.4330 O   0  0  0  0  0
    3.2210    1.5530   -1.1680 H   0  0  0  0  0
    1.8510    2.6900   -1.1820 H   0  0  0  0  0
    2.9820    2.6760    0.1920 H   0  0  0  0  0
    0.2370    0.9210   -1.3190 H   0  0  0  0  0
   -1.7990   -0.4800   -1.3530 H   0  0  0  0  0
   -2.3990   -1.0430    0.2260 H   0  0  0  0  0
   -3.6570    1.2450   -0.4400 H   0  0  0  0  0
  1  2  1  0  0  0
  1 12  1  0  0  0
  1 13  1  0  0  0
  1 14  1  0  0  0
  2  3  2  0  0  0
  2  4  1  0  0  0
  4  5  1  0  0  0
  4 15  1  0  0  0
  5  6  1  0  0  0
  5  7  1  0  0  0
  5  9  1  0  0  0
  7  8  1  0  0  0
  7 16  1  0  0  0
  7 17  1  0  0  0
  8 18  1  0  0  0
  9 10  2  0  0  0
  9 11  1  0  0  0
M  CHG  1  11  -1
M  END
