Cysteine dipeptide
 OpenBabel04140706513D

 23 22  0  0  0  0  0  0  0  0999 V2000
    2.7650    2.1260    0.3400 C   0  0  0  0  0
    1.8340    1.0760   -0.2070 C   0  0  0  0  0
    2.2050    0.3400   -1.0960 O   0  0  0  0  0
    0.5880    0.9540    0.2930 N   0  0  0  0  0
   -0.3180   -0.0680   -0.2390 C   0  0  0  0  0
   -0.1420   -0.1880   -1.3080 H   0  0  0  0  0
   -0.0610   -1.3980    0.4720 C   0  0  0  0  0
    1.6580   -1.9090    0.1950 S   0  0  0  0  0
   -1.7450    0.3570   -0.0090 C   0  0  0  0  0
   -1.9820    1.4100    0.5450 O   0  0  0  0  0
   -2.7580   -0.4320   -0.4180 N   0  0  0  0  0
   -4.1450   -0.0190   -0.1950 C   0  0  0  0  0
    2.6450    3.0500   -0.2260 H   0  0  0  0  0
    2.5300    2.3100    1.3890 H   0  0  0  0  0
    3.7950    1.7790    0.2540 H   0  0  0  0  0
    0.2910    1.5420    1.0040 H   0  0  0  0  0
   -0.2360   -1.2770    1.5420 H   0  0  0  0  0
   -0.7340   -2.1580    0.0770 H   0  0  0  0  0
    1.6710   -3.0640    0.8850 H   0  0  0  0  0
   -2.5680   -1.2740   -0.8610 H   0  0  0  0  0
   -4.3210    0.1010    0.8740 H   0  0  0  0  0
   -4.3280    0.9290   -0.7020 H   0  0  0  0  0
   -4.8190   -0.7790   -0.5900 H   0  0  0  0  0
  1  2  1  0  0  0
  1 13  1  0  0  0
  1 14  1  0  0  0
  1 15  1  0  0  0
  2  3  2  0  0  0
  2  4  1  0  0  0
  4  5  1  0  0  0
  4 16  1  0  0  0
  5  6  1  0  0  0
  5  7  1  0  0  0
  5  9  1  0  0  0
  7  8  1  0  0  0
  7 17  1  0  0  0
  7 18  1  0  0  0
  8 19  1  0  0  0
  9 10  2  0  0  0
  9 11  1  0  0  0
 11 12  1  0  0  0
 11 20  1  0  0  0
 12 21  1  0  0  0
 12 22  1  0  0  0
 12 23  1  0  0  0
M  END
