Cysteine N-terminal cation
 OpenBabel04140706513D

 19 18  0  0  0  0  0  0  0  0999 V2000
    0.7010   -1.6780    0.3400 N   0  0  0  0  0
    0.1510   -2.2630    0.9520 H   0  0  0  0  0
    1.6710   -1.7230    0.6150 H   0  0  0  0  0
    0.6050   -2.0020   -0.6100 H   0  0  0  0  0
    0.2290   -0.2900    0.4350 C   0  0  0  0  0
    0.3330    0.0590    1.4620 H   0  0  0  0  0
    1.0630    0.5960   -0.4920 C   0  0  0  0  0
    2.8070    0.5150    0.0020 S   0  0  0  0  0
   -1.2190   -0.2230    0.0250 C   0  0  0  0  0
   -1.7030   -1.1130   -0.6430 O   0  0  0  0  0
   -1.9780    0.8250    0.4010 N   0  0  0  0  0
   -3.3860    0.8910    0.0020 C   0  0  0  0  0
    0.9600    0.2460   -1.5190 H   0  0  0  0  0
    0.7130    1.6260   -0.4220 H   0  0  0  0  0
    3.3470    1.3400   -0.9130 H   0  0  0  0  0
   -1.5920    1.5370    0.9350 H   0  0  0  0  0
   -3.9170    0.0260    0.4000 H   0  0  0  0  0
   -3.8330    1.8040    0.3950 H   0  0  0  0  0
   -3.4560    0.8910   -1.0860 H   0  0  0  0  0
  1  2  1  0  0  0
  1  3  1  0  0  0
  1  4  1  0  0  0
  1  5  1  0  0  0
  5  6  1  0  0  0
  5  7  1  0  0  0
  5  9  1  0  0  0
  7  8  1  0  0  0
  7 13  1  0  0  0
  7 14  1  0  0  0
  8 15  1  0  0  0
  9 10  2  0  0  0
  9 11  1  0  0  0
 11 12  1  0  0  0
 11 16  1  0  0  0
 12 17  1  0  0  0
 12 18  1  0  0  0
 12 19  1  0  0  0
M  CHG  1   1   1
M  END
