Glutamate zwitterion
 OpenBabel04140706523D

 18 17  0  0  0  0  0  0  0  0999 V2000
    1.2330   -1.7860    0.2070 N   0  0  0  0  0
    0.4290   -2.3470   -0.0300 H   0  0  0  0  0
    1.2730   -1.6620    1.2080 H   0  0  0  0  0
    2.0720   -2.2510   -0.1080 H   0  0  0  0  0
    1.1260   -0.4750   -0.4450 C   0  0  0  0  0
    1.0830   -0.6090   -1.5260 H   0  0  0  0  0
   -0.1460    0.2300    0.0330 C   0  0  0  0  0
   -1.3710   -0.5570   -0.4360 C   0  0  0  0  0
   -2.6240    0.1370    0.0350 C   0  0  0  0  0
   -2.5390    1.2130    0.7150 O   0  0  0  0  0
   -3.7670   -0.3510   -0.2470 O   0  0  0  0  0
    2.3280    0.3630   -0.0900 C   0  0  0  0  0
    2.5290    1.4170   -0.6690 O   0  0  0  0  0
    3.0990   -0.0140    0.7760 O   0  0  0  0  0
   -0.1430    0.2850    1.1220 H   0  0  0  0  0
   -0.1800    1.2370   -0.3810 H   0  0  0  0  0
   -1.3730   -0.6110   -1.5240 H   0  0  0  0  0
   -1.3370   -1.5640   -0.0210 H   0  0  0  0  0
  1  2  1  0  0  0
  1  3  1  0  0  0
  1  4  1  0  0  0
  1  5  1  0  0  0
  5  6  1  0  0  0
  5  7  1  0  0  0
  5 12  1  0  0  0
  7  8  1  0  0  0
  7 15  1  0  0  0
  7 16  1  0  0  0
  8  9  1  0  0  0
  8 17  1  0  0  0
  8 18  1  0  0  0
  9 10  2  0  0  0
  9 11  1  0  0  0
 12 13  2  0  0  0
 12 14  1  0  0  0
M  CHG  1   1   1
M  CHG  1  11  -1
M  CHG  1  14  -1
M  END
