Glutamine dipeptide
 OpenBabel04140706513D

 29 28  0  0  0  0  0  0  0  0999 V2000
    0.7080    3.5270   -0.0080 C   0  0  0  0  0
    0.6770    2.0250   -0.1250 C   0  0  0  0  0
    0.7510    1.5000   -1.2160 O   0  0  0  0  0
    0.5680    1.2650    0.9830 N   0  0  0  0  0
    0.5380   -0.1950    0.8690 C   0  0  0  0  0
    0.4460   -0.6350    1.8620 H   0  0  0  0  0
   -0.6590   -0.6150    0.0130 C   0  0  0  0  0
   -1.9570   -0.2380    0.7290 C   0  0  0  0  0
   -3.1350   -0.6520   -0.1140 C   0  0  0  0  0
   -2.9540   -1.1950   -1.1830 O   0  0  0  0  0
   -4.3890   -0.4190    0.3200 N   0  0  0  0  0
    1.8110   -0.6750    0.2230 C   0  0  0  0  0
    2.4870    0.0930   -0.4290 O   0  0  0  0  0
    2.2000   -1.9570    0.3690 N   0  0  0  0  0
    3.4380   -2.4240   -0.2590 C   0  0  0  0  0
    0.8000    3.9670   -1.0010 H   0  0  0  0  0
   -0.2130    3.8750    0.4590 H   0  0  0  0  0
    1.5600    3.8270    0.6020 H   0  0  0  0  0
    0.5090    1.6850    1.8550 H   0  0  0  0  0
   -0.6140   -0.1050   -0.9500 H   0  0  0  0  0
   -0.6310   -1.6930   -0.1460 H   0  0  0  0  0
   -2.0020   -0.7480    1.6920 H   0  0  0  0  0
   -1.9840    0.8400    0.8880 H   0  0  0  0  0
   -4.5340    0.0150    1.1750 H   0  0  0  0  0
   -5.1480   -0.6860   -0.2230 H   0  0  0  0  0
    1.6600   -2.5710    0.8910 H   0  0  0  0  0
    4.2800   -1.8480    0.1250 H   0  0  0  0  0
    3.5860   -3.4790   -0.0310 H   0  0  0  0  0
    3.3700   -2.2910   -1.3390 H   0  0  0  0  0
  1  2  1  0  0  0
  1 16  1  0  0  0
  1 17  1  0  0  0
  1 18  1  0  0  0
  2  3  2  0  0  0
  2  4  1  0  0  0
  4  5  1  0  0  0
  4 19  1  0  0  0
  5  6  1  0  0  0
  5  7  1  0  0  0
  5 12  1  0  0  0
  7  8  1  0  0  0
  7 20  1  0  0  0
  7 21  1  0  0  0
  8  9  1  0  0  0
  8 22  1  0  0  0
  8 23  1  0  0  0
  9 10  2  0  0  0
  9 11  1  0  0  0
 11 24  1  0  0  0
 11 25  1  0  0  0
 12 13  2  0  0  0
 12 14  1  0  0  0
 14 15  1  0  0  0
 14 26  1  0  0  0
 15 27  1  0  0  0
 15 28  1  0  0  0
 15 29  1  0  0  0
M  END
