Glutamine C-terminal anion
 OpenBabel04140706523D

 24 23  0  0  0  0  0  0  0  0999 V2000
    2.6640    2.5690   -0.7020 C   0  0  0  0  0
    2.1120    1.3950    0.0650 C   0  0  0  0  0
    2.6040    1.0800    1.1280 O   0  0  0  0  0
    1.0730    0.6950   -0.4310 N   0  0  0  0  0
    0.5360   -0.4460    0.3150 C   0  0  0  0  0
    0.6000   -0.2450    1.3840 H   0  0  0  0  0
   -0.9260   -0.6690   -0.0760 C   0  0  0  0  0
   -1.7610    0.5340    0.3690 C   0  0  0  0  0
   -3.2020    0.3150   -0.0150 C   0  0  0  0  0
   -3.5290   -0.7030   -0.5880 O   0  0  0  0  0
   -4.1270    1.2500    0.2780 N   0  0  0  0  0
    1.3370   -1.6810   -0.0120 C   0  0  0  0  0
    2.2690   -1.6130   -0.7960 O   0  0  0  0  0
    1.0520   -2.7470    0.5070 O   0  0  0  0  0
    3.4950    3.0060   -0.1480 H   0  0  0  0  0
    3.0140    2.2340   -1.6780 H   0  0  0  0  0
    1.8820    3.3170   -0.8330 H   0  0  0  0  0
    0.6790    0.9470   -1.2810 H   0  0  0  0  0
   -1.0010   -0.7820   -1.1570 H   0  0  0  0  0
   -1.2990   -1.5700    0.4110 H   0  0  0  0  0
   -1.6870    0.6470    1.4510 H   0  0  0  0  0
   -1.3880    1.4350   -0.1170 H   0  0  0  0  0
   -3.8660    2.0640    0.7370 H   0  0  0  0  0
   -5.0540    1.1090    0.0310 H   0  0  0  0  0
  1  2  1  0  0  0
  1 15  1  0  0  0
  1 16  1  0  0  0
  1 17  1  0  0  0
  2  3  2  0  0  0
  2  4  1  0  0  0
  4  5  1  0  0  0
  4 18  1  0  0  0
  5  6  1  0  0  0
  5  7  1  0  0  0
  5 12  1  0  0  0
  7  8  1  0  0  0
  7 19  1  0  0  0
  7 20  1  0  0  0
  8  9  1  0  0  0
  8 21  1  0  0  0
  8 22  1  0  0  0
  9 10  2  0  0  0
  9 11  1  0  0  0
 11 23  1  0  0  0
 11 24  1  0  0  0
 12 13  2  0  0  0
 12 14  1  0  0  0
M  CHG  1  14  -1
M  END
