Histidine (epsilon-protonated) zwitterion
 OpenBabel04140706523D

 20 20  0  0  0  0  0  0  0  0999 V2000
   -0.9030   -1.5390    0.4970 N   0  0  0  0  0
   -1.5030   -1.8980    1.2250 H   0  0  0  0  0
    0.0590   -1.7390    0.7250 H   0  0  0  0  0
   -1.1400   -1.9780   -0.3800 H   0  0  0  0  0
   -1.0870   -0.0860    0.3820 C   0  0  0  0  0
   -0.8320    0.3880    1.3300 H   0  0  0  0  0
   -0.1780    0.4580   -0.7220 C   0  0  0  0  0
    1.2630    0.2680   -0.3240 C   0  0  0  0  0
    1.8320    0.7050    0.8090 N   0  0  0  0  0
    3.0910    0.3630    0.8180 C   0  0  0  0  0
    3.3660   -0.3090   -0.3200 N   0  0  0  0  0
    4.2240   -0.6810   -0.5770 H   0  0  0  0  0
    2.2040   -0.3740   -1.0420 C   0  0  0  0  0
   -2.5250    0.2130    0.0420 C   0  0  0  0  0
   -3.3220   -0.7000   -0.0930 O   0  0  0  0  0
   -2.8900    1.3680   -0.0990 O   0  0  0  0  0
   -0.3720   -0.0800   -1.6500 H   0  0  0  0  0
   -0.3780    1.5190   -0.8680 H   0  0  0  0  0
    3.7970    0.5810    1.6060 H   0  0  0  0  0
    2.0700   -0.8440   -2.0050 H   0  0  0  0  0
  1  2  1  0  0  0
  1  3  1  0  0  0
  1  4  1  0  0  0
  1  5  1  0  0  0
  5  6  1  0  0  0
  5  7  1  0  0  0
  5 14  1  0  0  0
  7  8  1  0  0  0
  7 17  1  0  0  0
  7 18  1  0  0  0
  8 13  2  0  0  0
  8  9  1  0  0  0
  9 10  2  0  0  0
 10 11  1  0  0  0
 10 19  1  0  0  0
 11 12  1  0  0  0
 11 13  1  0  0  0
 13 20  1  0  0  0
 14 15  2  0  0  0
 14 16  1  0  0  0
M  CHG  1   1   1
M  CHG  1  16  -1
M  END
