Histidine (epsilon-protonated) C-terminal anion
 OpenBabel04140706523D

 24 24  0  0  0  0  0  0  0  0999 V2000
    1.4510    3.1020   -0.5970 C   0  0  0  0  0
    1.3550    1.7720    0.1050 C   0  0  0  0  0
    1.7740    1.6520    1.2370 O   0  0  0  0  0
    0.8040    0.7150   -0.5250 N   0  0  0  0  0
    0.7100   -0.5770    0.1580 C   0  0  0  0  0
    0.5240   -0.4150    1.2200 H   0  0  0  0  0
   -0.4390   -1.3900   -0.4420 C   0  0  0  0  0
   -1.7460   -0.6940   -0.1610 C   0  0  0  0  0
   -2.2020   -0.3320    1.0480 N   0  0  0  0  0
   -3.3650    0.2450    0.9140 C   0  0  0  0  0
   -3.6880    0.2670   -0.3970 N   0  0  0  0  0
   -4.4970    0.6370   -0.7840 H   0  0  0  0  0
   -2.6590   -0.3230   -1.0790 C   0  0  0  0  0
    2.0030   -1.3320   -0.0160 C   0  0  0  0  0
    2.3920   -2.1470    0.8850 O   0  0  0  0  0
    2.7090   -1.1550   -1.0630 O   0  0  0  0  0
    2.3970    3.1610   -1.1360 H   0  0  0  0  0
    0.6250    3.2010   -1.3020 H   0  0  0  0  0
    1.4010    3.9050    0.1380 H   0  0  0  0  0
    0.4690    0.8110   -1.4300 H   0  0  0  0  0
   -0.2980   -1.4760   -1.5200 H   0  0  0  0  0
   -0.4530   -2.3840    0.0030 H   0  0  0  0  0
   -3.9680    0.6380    1.7180 H   0  0  0  0  0
   -2.5940   -0.4690   -2.1470 H   0  0  0  0  0
  1  2  1  0  0  0
  1 17  1  0  0  0
  1 18  1  0  0  0
  1 19  1  0  0  0
  2  3  2  0  0  0
  2  4  1  0  0  0
  4  5  1  0  0  0
  4 20  1  0  0  0
  5  6  1  0  0  0
  5  7  1  0  0  0
  5 14  1  0  0  0
  7  8  1  0  0  0
  7 21  1  0  0  0
  7 22  1  0  0  0
  8 13  2  0  0  0
  8  9  1  0  0  0
  9 10  2  0  0  0
 10 11  1  0  0  0
 10 23  1  0  0  0
 11 12  1  0  0  0
 11 13  1  0  0  0
 13 24  1  0  0  0
 14 15  2  0  0  0
 14 16  1  0  0  0
M  CHG  1  16  -1
M  END
