Histidine (epsilon-protonated) dipeptide
 OpenBabel04140706513D

 29 29  0  0  0  0  0  0  0  0999 V2000
   -0.2420    3.4030   -0.5370 C   0  0  0  0  0
   -0.5150    1.9880   -0.0970 C   0  0  0  0  0
   -0.9560    1.7720    1.0120 O   0  0  0  0  0
   -0.2690    0.9620   -0.9360 N   0  0  0  0  0
   -0.5340   -0.4140   -0.5080 C   0  0  0  0  0
   -0.2760   -1.1010   -1.3130 H   0  0  0  0  0
    0.3090   -0.7350    0.7270 C   0  0  0  0  0
    1.7700   -0.7070    0.3590 C   0  0  0  0  0
    2.3490   -1.4150   -0.6230 N   0  0  0  0  0
    3.6250   -1.1420   -0.6550 C   0  0  0  0  0
    3.9000   -0.2430    0.3150 N   0  0  0  0  0
    4.7690    0.1370    0.5170 H   0  0  0  0  0
    2.7220    0.0360    0.9540 C   0  0  0  0  0
   -1.9960   -0.5610   -0.1700 C   0  0  0  0  0
   -2.6630    0.4200    0.0780 O   0  0  0  0  0
   -2.5610   -1.7850   -0.1450 N   0  0  0  0  0
   -3.9810   -1.9280    0.1830 C   0  0  0  0  0
    0.7810    3.6740   -0.2760 H   0  0  0  0  0
   -0.3740    3.4800   -1.6160 H   0  0  0  0  0
   -0.9350    4.0800   -0.0370 H   0  0  0  0  0
    0.0840    1.1350   -1.8230 H   0  0  0  0  0
    0.1160    0.0060    1.5030 H   0  0  0  0  0
    0.0470   -1.7260    1.0980 H   0  0  0  0  0
    4.3420   -1.5640   -1.3430 H   0  0  0  0  0
    2.5840    0.7170    1.7810 H   0  0  0  0  0
   -2.0270   -2.5700   -0.3430 H   0  0  0  0  0
   -4.1660   -1.5320    1.1820 H   0  0  0  0  0
   -4.5790   -1.3770   -0.5420 H   0  0  0  0  0
   -4.2560   -2.9830    0.1550 H   0  0  0  0  0
  1  2  1  0  0  0
  1 18  1  0  0  0
  1 19  1  0  0  0
  1 20  1  0  0  0
  2  3  2  0  0  0
  2  4  1  0  0  0
  4  5  1  0  0  0
  4 21  1  0  0  0
  5  6  1  0  0  0
  5  7  1  0  0  0
  5 14  1  0  0  0
  7  8  1  0  0  0
  7 22  1  0  0  0
  7 23  1  0  0  0
  8 13  2  0  0  0
  8  9  1  0  0  0
  9 10  2  0  0  0
 10 11  1  0  0  0
 10 24  1  0  0  0
 11 12  1  0  0  0
 11 13  1  0  0  0
 13 25  1  0  0  0
 14 15  2  0  0  0
 14 16  1  0  0  0
 16 17  1  0  0  0
 16 26  1  0  0  0
 17 27  1  0  0  0
 17 28  1  0  0  0
 17 29  1  0  0  0
M  END
