Histidine (delta-protonated) N-terminal cation
 OpenBabel04140706513D

 25 25  0  0  0  0  0  0  0  0999 V2000
   -0.3040   -1.6740    0.7010 N   0  0  0  0  0
   -0.8530   -2.0180    1.4740 H   0  0  0  0  0
    0.6760   -1.7320    0.9320 H   0  0  0  0  0
   -0.4900   -2.2330   -0.1180 H   0  0  0  0  0
   -0.6620   -0.2750    0.4300 C   0  0  0  0  0
   -0.4610    0.3290    1.3150 H   0  0  0  0  0
    0.1700    0.2460   -0.7430 C   0  0  0  0  0
    1.6260    0.2750   -0.3530 C   0  0  0  0  0
    2.5560   -0.6980   -0.5980 N   0  0  0  0  0
    2.4020   -1.5390   -1.0570 H   0  0  0  0  0
    3.7280   -0.2700   -0.0820 C   0  0  0  0  0
    3.5440    0.9050    0.4560 N   0  0  0  0  0
    2.2620    1.2670    0.2990 C   0  0  0  0  0
   -2.1260   -0.1890    0.0840 C   0  0  0  0  0
   -2.7200   -1.1790   -0.2890 O   0  0  0  0  0
   -2.7760    0.9870    0.1900 N   0  0  0  0  0
   -4.1990    1.0700   -0.1460 C   0  0  0  0  0
    0.0380   -0.4110   -1.6030 H   0  0  0  0  0
   -0.1570    1.2530   -1.0020 H   0  0  0  0  0
    4.6630   -0.8100   -0.1100 H   0  0  0  0  0
    1.8170    2.1890    0.6420 H   0  0  0  0  0
   -2.3010    1.7780    0.4880 H   0  0  0  0  0
   -4.7650    0.3980    0.4990 H   0  0  0  0  0
   -4.5480    2.0930   -0.0000 H   0  0  0  0  0
   -4.3440    0.7820   -1.1870 H   0  0  0  0  0
  1  2  1  0  0  0
  1  3  1  0  0  0
  1  4  1  0  0  0
  1  5  1  0  0  0
  5  6  1  0  0  0
  5  7  1  0  0  0
  5 14  1  0  0  0
  7  8  1  0  0  0
  7 18  1  0  0  0
  7 19  1  0  0  0
  8 13  2  0  0  0
  8  9  1  0  0  0
  9 10  1  0  0  0
  9 11  1  0  0  0
 11 12  2  0  0  0
 11 20  1  0  0  0
 12 13  1  0  0  0
 13 21  1  0  0  0
 14 15  2  0  0  0
 14 16  1  0  0  0
 16 17  1  0  0  0
 16 22  1  0  0  0
 17 23  1  0  0  0
 17 24  1  0  0  0
 17 25  1  0  0  0
M  CHG  1   1   1
M  END
