Histidine (delta-protonated) zwitterion
 OpenBabel04140706523D

 20 20  0  0  0  0  0  0  0  0999 V2000
   -0.8920   -1.5220    0.5330 N   0  0  0  0  0
   -1.4880   -1.8700    1.2690 H   0  0  0  0  0
    0.0720   -1.7170    0.7610 H   0  0  0  0  0
   -1.1300   -1.9760   -0.3360 H   0  0  0  0  0
   -1.0780   -0.0720    0.3950 C   0  0  0  0  0
   -0.8210    0.4180    1.3340 H   0  0  0  0  0
   -0.1740    0.4550   -0.7200 C   0  0  0  0  0
    1.2690    0.2750   -0.3240 C   0  0  0  0  0
    2.0820   -0.7740   -0.6570 N   0  0  0  0  0
    1.8370   -1.5440   -1.1950 H   0  0  0  0  0
    3.2890   -0.5380   -0.0990 C   0  0  0  0  0
    3.2360    0.5940    0.5470 N   0  0  0  0  0
    2.0080    1.1190    0.4220 C   0  0  0  0  0
   -2.5170    0.2190    0.0550 C   0  0  0  0  0
   -3.3140   -0.6970   -0.0630 O   0  0  0  0  0
   -2.8860    1.3710   -0.1040 O   0  0  0  0  0
   -0.3700   -0.0970   -1.6390 H   0  0  0  0  0
   -0.3760    1.5140   -0.8820 H   0  0  0  0  0
    4.1540   -1.1800   -0.1750 H   0  0  0  0  0
    1.6700    2.0510    0.8500 H   0  0  0  0  0
  1  2  1  0  0  0
  1  3  1  0  0  0
  1  4  1  0  0  0
  1  5  1  0  0  0
  5  6  1  0  0  0
  5  7  1  0  0  0
  5 14  1  0  0  0
  7  8  1  0  0  0
  7 17  1  0  0  0
  7 18  1  0  0  0
  8 13  2  0  0  0
  8  9  1  0  0  0
  9 10  1  0  0  0
  9 11  1  0  0  0
 11 12  2  0  0  0
 11 19  1  0  0  0
 12 13  1  0  0  0
 13 20  1  0  0  0
 14 15  2  0  0  0
 14 16  1  0  0  0
M  CHG  1   1   1
M  CHG  1  16  -1
M  END
