Histidine cation N-terminal cation
 OpenBabel04140706513D

 26 26  0  0  0  0  0  0  0  0999 V2000
    0.3370    1.6730    0.7140 N   0  0  0  0  0
    0.5290    2.2400   -0.0980 H   0  0  0  0  0
    0.8850    2.0050    1.4930 H   0  0  0  0  0
   -0.6440    1.7340    0.9430 H   0  0  0  0  0
    0.6870    0.2750    0.4300 C   0  0  0  0  0
    0.4800   -0.3370    1.3070 H   0  0  0  0  0
   -0.1440   -0.2290   -0.7510 C   0  0  0  0  0
   -1.6010   -0.2530   -0.3660 C   0  0  0  0  0
   -2.5250    0.7290   -0.6040 N   0  0  0  0  0
   -2.3640    1.5730   -1.0530 H   0  0  0  0  0
   -3.7010    0.3020   -0.0970 C   0  0  0  0  0
   -3.5260   -0.8790    0.4290 N   0  0  0  0  0
   -4.2140   -1.4090    0.8610 H   0  0  0  0  0
   -2.2460   -1.2480    0.2730 C   0  0  0  0  0
    2.1520    0.1840    0.0880 C   0  0  0  0  0
    2.7540    1.1730   -0.2730 O   0  0  0  0  0
    2.7940   -0.9980    0.1840 N   0  0  0  0  0
    4.2180   -1.0860   -0.1490 C   0  0  0  0  0
   -0.0050    0.4360   -1.6040 H   0  0  0  0  0
    0.1780   -1.2350   -1.0190 H   0  0  0  0  0
   -4.6320    0.8480   -0.1220 H   0  0  0  0  0
   -1.8070   -2.1760    0.6080 H   0  0  0  0  0
    2.3130   -1.7890    0.4720 H   0  0  0  0  0
    4.7860   -0.4250    0.5060 H   0  0  0  0  0
    4.5600   -2.1120   -0.0120 H   0  0  0  0  0
    4.3680   -0.7880   -1.1860 H   0  0  0  0  0
  1  2  1  0  0  0
  1  3  1  0  0  0
  1  4  1  0  0  0
  1  5  1  0  0  0
  5  6  1  0  0  0
  5  7  1  0  0  0
  5 15  1  0  0  0
  7  8  1  0  0  0
  7 19  1  0  0  0
  7 20  1  0  0  0
  8 14  2  0  0  0
  8  9  1  0  0  0
  9 10  1  0  0  0
  9 11  1  0  0  0
 11 12  2  0  0  0
 11 21  1  0  0  0
 12 13  1  0  0  0
 12 14  1  0  0  0
 14 22  1  0  0  0
 15 16  2  0  0  0
 15 17  1  0  0  0
 17 18  1  0  0  0
 17 23  1  0  0  0
 18 24  1  0  0  0
 18 25  1  0  0  0
 18 26  1  0  0  0
M  CHG  1   1   1
M  CHG  1  12   1
M  END
