Isoleucine zwitterion
 OpenBabel04140706523D

 22 21  0  0  0  0  0  0  0  0999 V2000
    0.4470   -1.8900   -0.2220 N   0  0  0  0  0
    0.5210   -2.0380    0.7730 H   0  0  0  0  0
    1.2450   -2.3000   -0.6830 H   0  0  0  0  0
   -0.3980   -2.3230   -0.5640 H   0  0  0  0  0
    0.4070   -0.4490   -0.5020 C   0  0  0  0  0
    0.3270   -0.2890   -1.5770 H   0  0  0  0  0
   -0.8030    0.1730    0.1980 C   0  0  0  0  0
   -0.7230    0.0140    1.2730 H   0  0  0  0  0
   -0.8450    1.6740   -0.0930 C   0  0  0  0  0
   -2.0850   -0.4830   -0.3210 C   0  0  0  0  0
   -3.2840    0.0490    0.4660 C   0  0  0  0  0
    1.6690    0.1970    0.0090 C   0  0  0  0  0
    1.9220    1.3550   -0.2810 O   0  0  0  0  0
    2.4370   -0.4370    0.7130 O   0  0  0  0  0
   -0.9260    1.8340   -1.1690 H   0  0  0  0  0
   -1.7080    2.1170    0.4050 H   0  0  0  0  0
    0.0670    2.1420    0.2760 H   0  0  0  0  0
   -2.2110   -0.2490   -1.3780 H   0  0  0  0  0
   -2.0170   -1.5640   -0.1940 H   0  0  0  0  0
   -3.1580   -0.1860    1.5230 H   0  0  0  0  0
   -3.3520    1.1290    0.3390 H   0  0  0  0  0
   -4.1970   -0.4190    0.0960 H   0  0  0  0  0
  1  2  1  0  0  0
  1  3  1  0  0  0
  1  4  1  0  0  0
  1  5  1  0  0  0
  5  6  1  0  0  0
  5  7  1  0  0  0
  5 12  1  0  0  0
  7  8  1  0  0  0
  7  9  1  0  0  0
  7 10  1  0  0  0
  9 15  1  0  0  0
  9 16  1  0  0  0
  9 17  1  0  0  0
 10 11  1  0  0  0
 10 18  1  0  0  0
 10 19  1  0  0  0
 11 20  1  0  0  0
 11 21  1  0  0  0
 11 22  1  0  0  0
 12 13  2  0  0  0
 12 14  1  0  0  0
M  CHG  1   1   1
M  CHG  1  14  -1
M  END
