Leucine zwitterion
 OpenBabel04140706523D

 22 21  0  0  0  0  0  0  0  0999 V2000
   -1.6040   -1.7590    0.0420 N   0  0  0  0  0
   -2.3940   -1.7090    0.6680 H   0  0  0  0  0
   -1.1350   -2.6440    0.1620 H   0  0  0  0  0
   -1.9230   -1.6740   -0.9110 H   0  0  0  0  0
   -0.6710   -0.6650    0.3450 C   0  0  0  0  0
   -0.3940   -0.7060    1.3990 H   0  0  0  0  0
    0.5840   -0.8110   -0.5180 C   0  0  0  0  0
    1.6240    0.2230   -0.0850 C   0  0  0  0  0
    2.0830   -0.0830    1.3430 C   0  0  0  0  0
    2.8260    0.1650   -1.0300 C   0  0  0  0  0
   -1.3330    0.6560    0.0500 C   0  0  0  0  0
   -2.5280    0.6860   -0.3920 O   0  0  0  0  0
   -0.6970    1.7450    0.2440 O   0  0  0  0  0
    0.9940   -1.8130   -0.3960 H   0  0  0  0  0
    0.3250   -0.6500   -1.5650 H   0  0  0  0  0
    1.1830    1.2190   -0.1190 H   0  0  0  0  0
    2.8900    0.5970    1.6190 H   0  0  0  0  0
    1.2470    0.0470    2.0290 H   0  0  0  0  0
    2.4410   -1.1120    1.3970 H   0  0  0  0  0
    2.4990    0.3830   -2.0470 H   0  0  0  0  0
    3.5670    0.9010   -0.7210 H   0  0  0  0  0
    3.2670   -0.8310   -0.9960 H   0  0  0  0  0
  1  2  1  0  0  0
  1  3  1  0  0  0
  1  4  1  0  0  0
  1  5  1  0  0  0
  5  6  1  0  0  0
  5  7  1  0  0  0
  5 11  1  0  0  0
  7  8  1  0  0  0
  7 14  1  0  0  0
  7 15  1  0  0  0
  8  9  1  0  0  0
  8 10  1  0  0  0
  8 16  1  0  0  0
  9 17  1  0  0  0
  9 18  1  0  0  0
  9 19  1  0  0  0
 10 20  1  0  0  0
 10 21  1  0  0  0
 10 22  1  0  0  0
 11 12  2  0  0  0
 11 13  1  0  0  0
M  CHG  1   1   1
M  CHG  1  13  -1
M  END
