Leucine N-terminal cation
 OpenBabel04140706513D

 27 26  0  0  0  0  0  0  0  0999 V2000
    0.1900   -1.9250    0.4160 N   0  0  0  0  0
   -0.4410   -2.3740    1.0620 H   0  0  0  0  0
    1.1430   -2.1060    0.6950 H   0  0  0  0  0
    0.0360   -2.2890   -0.5120 H   0  0  0  0  0
   -0.0530   -0.4760    0.4200 C   0  0  0  0  0
    0.1130   -0.0820    1.4230 H   0  0  0  0  0
    0.9040    0.2050   -0.5600 C   0  0  0  0  0
    2.3430    0.0350   -0.0690 C   0  0  0  0  0
    3.3080    0.6060   -1.1090 C   0  0  0  0  0
    2.5210    0.7810    1.2550 C   0  0  0  0  0
   -1.4760   -0.2040    0.0030 C   0  0  0  0  0
   -2.1000   -1.0460   -0.6070 O   0  0  0  0  0
   -2.0550    0.9740    0.3090 N   0  0  0  0  0
   -3.4370    1.2380   -0.0970 C   0  0  0  0  0
    0.8000   -0.2500   -1.5450 H   0  0  0  0  0
    0.6650    1.2670   -0.6240 H   0  0  0  0  0
    2.5540   -1.0240    0.0800 H   0  0  0  0  0
    3.0980    1.6650   -1.2580 H   0  0  0  0  0
    4.3330    0.4850   -0.7590 H   0  0  0  0  0
    3.1810    0.0750   -2.0530 H   0  0  0  0  0
    1.8340    0.3740    1.9970 H   0  0  0  0  0
    3.5460    0.6600    1.6060 H   0  0  0  0  0
    2.3110    1.8400    1.1070 H   0  0  0  0  0
   -1.5550    1.6470    0.7970 H   0  0  0  0  0
   -3.5150    1.1800   -1.1820 H   0  0  0  0  0
   -4.0960    0.4960    0.3550 H   0  0  0  0  0
   -3.7300    2.2340    0.2360 H   0  0  0  0  0
  1  2  1  0  0  0
  1  3  1  0  0  0
  1  4  1  0  0  0
  1  5  1  0  0  0
  5  6  1  0  0  0
  5  7  1  0  0  0
  5 11  1  0  0  0
  7  8  1  0  0  0
  7 15  1  0  0  0
  7 16  1  0  0  0
  8  9  1  0  0  0
  8 10  1  0  0  0
  8 17  1  0  0  0
  9 18  1  0  0  0
  9 19  1  0  0  0
  9 20  1  0  0  0
 10 21  1  0  0  0
 10 22  1  0  0  0
 10 23  1  0  0  0
 11 12  2  0  0  0
 11 13  1  0  0  0
 13 14  1  0  0  0
 13 24  1  0  0  0
 14 25  1  0  0  0
 14 26  1  0  0  0
 14 27  1  0  0  0
M  CHG  1   1   1
M  END
