Leucine dipeptide
 OpenBabel04140706513D

 31 30  0  0  0  0  0  0  0  0999 V2000
   -0.4500    3.4450    0.3880 C   0  0  0  0  0
   -0.1320    2.0160    0.0290 C   0  0  0  0  0
    0.2250    1.7380   -1.0960 O   0  0  0  0  0
   -0.2460    1.0470    0.9590 N   0  0  0  0  0
    0.0630   -0.3420    0.6100 C   0  0  0  0  0
   -0.0860   -0.9780    1.4830 H   0  0  0  0  0
   -0.8620   -0.8020   -0.5190 C   0  0  0  0  0
   -2.3080   -0.8220   -0.0170 C   0  0  0  0  0
   -3.2450   -1.1610   -1.1780 C   0  0  0  0  0
   -2.4520   -1.8790    1.0800 C   0  0  0  0  0
    1.4960   -0.4400    0.1560 C   0  0  0  0  0
    2.0820    0.5530   -0.2210 O   0  0  0  0  0
    2.1280   -1.6300    0.1690 N   0  0  0  0  0
    3.5220   -1.7250   -0.2730 C   0  0  0  0  0
   -0.3010    4.0800   -0.4850 H   0  0  0  0  0
   -1.4870    3.5150    0.7170 H   0  0  0  0  0
    0.2090    3.7730    1.1920 H   0  0  0  0  0
   -0.5320    1.2690    1.8590 H   0  0  0  0  0
   -0.7790   -0.1140   -1.3600 H   0  0  0  0  0
   -0.5750   -1.8040   -0.8390 H   0  0  0  0  0
   -2.5660    0.1570    0.3850 H   0  0  0  0  0
   -2.9860   -2.1410   -1.5800 H   0  0  0  0  0
   -4.2750   -1.1760   -0.8210 H   0  0  0  0  0
   -3.1420   -0.4090   -1.9600 H   0  0  0  0  0
   -1.7840   -1.6370    1.9070 H   0  0  0  0  0
   -3.4820   -1.8930    1.4370 H   0  0  0  0  0
   -2.1930   -2.8580    0.6780 H   0  0  0  0  0
    1.6600   -2.4240    0.4710 H   0  0  0  0  0
    4.1460   -1.0890    0.3550 H   0  0  0  0  0
    3.8590   -2.7580   -0.1920 H   0  0  0  0  0
    3.5970   -1.3980   -1.3100 H   0  0  0  0  0
  1  2  1  0  0  0
  1 15  1  0  0  0
  1 16  1  0  0  0
  1 17  1  0  0  0
  2  3  2  0  0  0
  2  4  1  0  0  0
  4  5  1  0  0  0
  4 18  1  0  0  0
  5  6  1  0  0  0
  5  7  1  0  0  0
  5 11  1  0  0  0
  7  8  1  0  0  0
  7 19  1  0  0  0
  7 20  1  0  0  0
  8  9  1  0  0  0
  8 10  1  0  0  0
  8 21  1  0  0  0
  9 22  1  0  0  0
  9 23  1  0  0  0
  9 24  1  0  0  0
 10 25  1  0  0  0
 10 26  1  0  0  0
 10 27  1  0  0  0
 11 12  2  0  0  0
 11 13  1  0  0  0
 13 14  1  0  0  0
 13 28  1  0  0  0
 14 29  1  0  0  0
 14 30  1  0  0  0
 14 31  1  0  0  0
M  END
