Lysine cation dipeptide
 OpenBabel04140706513D

 34 33  0  0  0  0  0  0  0  0999 V2000
   -1.7280    3.4550    0.5610 C   0  0  0  0  0
   -1.5620    2.1280   -0.1320 C   0  0  0  0  0
   -2.1080    1.9270   -1.1960 O   0  0  0  0  0
   -0.8070    1.1630    0.4300 N   0  0  0  0  0
   -0.6470   -0.1280   -0.2430 C   0  0  0  0  0
   -0.6230    0.0260   -1.3220 H   0  0  0  0  0
    0.6630   -0.7790    0.2070 C   0  0  0  0  0
    1.8440    0.0730   -0.2620 C   0  0  0  0  0
    3.1530   -0.5780    0.1880 C   0  0  0  0  0
    4.3340    0.2740   -0.2810 C   0  0  0  0  0
    5.5910   -0.3510    0.1520 N   0  0  0  0  0
    6.3700    0.2100   -0.1580 H   0  0  0  0  0
    5.6040   -0.4180    1.1580 H   0  0  0  0  0
    5.6630   -1.2750   -0.2480 H   0  0  0  0  0
   -1.8030   -1.0270    0.1110 C   0  0  0  0  0
   -2.6750   -0.6290    0.8540 O   0  0  0  0  0
   -1.8670   -2.2740   -0.3970 N   0  0  0  0  0
   -2.9910   -3.1480   -0.0520 C   0  0  0  0  0
   -2.3670    4.1020   -0.0410 H   0  0  0  0  0
   -2.1840    3.3010    1.5380 H   0  0  0  0  0
   -0.7520    3.9240    0.6850 H   0  0  0  0  0
   -0.3710    1.3240    1.2810 H   0  0  0  0  0
    0.6770   -0.8510    1.2950 H   0  0  0  0  0
    0.7400   -1.7770   -0.2240 H   0  0  0  0  0
    1.8300    0.1460   -1.3500 H   0  0  0  0  0
    1.7670    1.0710    0.1690 H   0  0  0  0  0
    3.1670   -0.6500    1.2760 H   0  0  0  0  0
    3.2300   -1.5760   -0.2430 H   0  0  0  0  0
    4.3200    0.3460   -1.3690 H   0  0  0  0  0
    4.2570    1.2720    0.1510 H   0  0  0  0  0
   -1.1690   -2.5920   -0.9900 H   0  0  0  0  0
   -2.8720   -4.1080   -0.5530 H   0  0  0  0  0
   -3.0140   -3.3010    1.0270 H   0  0  0  0  0
   -3.9240   -2.6840   -0.3730 H   0  0  0  0  0
  1  2  1  0  0  0
  1 19  1  0  0  0
  1 20  1  0  0  0
  1 21  1  0  0  0
  2  3  2  0  0  0
  2  4  1  0  0  0
  4  5  1  0  0  0
  4 22  1  0  0  0
  5  6  1  0  0  0
  5  7  1  0  0  0
  5 15  1  0  0  0
  7  8  1  0  0  0
  7 23  1  0  0  0
  7 24  1  0  0  0
  8  9  1  0  0  0
  8 25  1  0  0  0
  8 26  1  0  0  0
  9 10  1  0  0  0
  9 27  1  0  0  0
  9 28  1  0  0  0
 10 11  1  0  0  0
 10 29  1  0  0  0
 10 30  1  0  0  0
 11 12  1  0  0  0
 11 13  1  0  0  0
 11 14  1  0  0  0
 15 16  2  0  0  0
 15 17  1  0  0  0
 17 18  1  0  0  0
 17 31  1  0  0  0
 18 32  1  0  0  0
 18 33  1  0  0  0
 18 34  1  0  0  0
M  CHG  1  11   1
M  END
