Lysine cation N-terminal cation
 OpenBabel04140706513D

 30 29  0  0  0  0  0  0  0  0999 V2000
    0.8640   -2.0540   -0.1570 N   0  0  0  0  0
   -0.0180   -2.4110   -0.4920 H   0  0  0  0  0
    0.9210   -2.1810    0.8430 H   0  0  0  0  0
    1.6200   -2.5530   -0.6020 H   0  0  0  0  0
    0.9670   -0.6240   -0.4750 C   0  0  0  0  0
    0.9060   -0.4860   -1.5540 H   0  0  0  0  0
   -0.1780    0.1330    0.2010 C   0  0  0  0  0
   -1.5120   -0.3200   -0.3970 C   0  0  0  0  0
   -2.6570    0.4360    0.2780 C   0  0  0  0  0
   -3.9900   -0.0170   -0.3200 C   0  0  0  0  0
   -5.0900    0.7090    0.3290 N   0  0  0  0  0
   -5.9690    0.4110   -0.0660 H   0  0  0  0  0
   -5.0830    0.5160    1.3190 H   0  0  0  0  0
   -4.9740    1.7000    0.1790 H   0  0  0  0  0
    2.2850   -0.0910    0.0260 C   0  0  0  0  0
    2.8950   -0.6920    0.8850 O   0  0  0  0  0
    2.7860    1.0530   -0.4810 N   0  0  0  0  0
    4.0670    1.5700    0.0060 C   0  0  0  0  0
   -0.1700   -0.0760    1.2710 H   0  0  0  0  0
   -0.0520    1.2030    0.0390 H   0  0  0  0  0
   -1.5190   -0.1110   -1.4670 H   0  0  0  0  0
   -1.6380   -1.3910   -0.2350 H   0  0  0  0  0
   -2.6490    0.2270    1.3480 H   0  0  0  0  0
   -2.5310    1.5070    0.1160 H   0  0  0  0  0
   -3.9980    0.1920   -1.3900 H   0  0  0  0  0
   -4.1160   -1.0870   -0.1580 H   0  0  0  0  0
    2.2980    1.5330   -1.1680 H   0  0  0  0  0
    3.9980    1.7650    1.0760 H   0  0  0  0  0
    4.8500    0.8350   -0.1800 H   0  0  0  0  0
    4.3070    2.4960   -0.5170 H   0  0  0  0  0
  1  2  1  0  0  0
  1  3  1  0  0  0
  1  4  1  0  0  0
  1  5  1  0  0  0
  5  6  1  0  0  0
  5  7  1  0  0  0
  5 15  1  0  0  0
  7  8  1  0  0  0
  7 19  1  0  0  0
  7 20  1  0  0  0
  8  9  1  0  0  0
  8 21  1  0  0  0
  8 22  1  0  0  0
  9 10  1  0  0  0
  9 23  1  0  0  0
  9 24  1  0  0  0
 10 11  1  0  0  0
 10 25  1  0  0  0
 10 26  1  0  0  0
 11 12  1  0  0  0
 11 13  1  0  0  0
 11 14  1  0  0  0
 15 16  2  0  0  0
 15 17  1  0  0  0
 17 18  1  0  0  0
 17 27  1  0  0  0
 18 28  1  0  0  0
 18 29  1  0  0  0
 18 30  1  0  0  0
M  CHG  1   1   1
M  CHG  1  11   1
M  END
