Methionine zwitterion
 OpenBabel04140706523D

 20 19  0  0  0  0  0  0  0  0999 V2000
   -1.2730    1.7650    0.0290 N   0  0  0  0  0
   -2.0630    2.2430   -0.3790 H   0  0  0  0  0
   -0.4220    2.2410   -0.2290 H   0  0  0  0  0
   -1.3640    1.7610    1.0340 H   0  0  0  0  0
   -1.2300    0.3820   -0.4640 C   0  0  0  0  0
   -1.1310    0.3860   -1.5490 H   0  0  0  0  0
   -0.0320   -0.3430    0.1540 C   0  0  0  0  0
    1.2640    0.3030   -0.3380 C   0  0  0  0  0
    2.6840   -0.5560    0.3950 S   0  0  0  0  0
    4.0420    0.3940   -0.3430 C   0  0  0  0  0
   -2.5010   -0.3290   -0.0780 C   0  0  0  0  0
   -3.4030    0.2890    0.5790 O   0  0  0  0  0
   -2.6750   -1.5490   -0.4070 O   0  0  0  0  0
   -0.0850   -0.2700    1.2410 H   0  0  0  0  0
   -0.0510   -1.3920   -0.1410 H   0  0  0  0  0
    1.3170    0.2300   -1.4240 H   0  0  0  0  0
    1.2830    1.3520   -0.0430 H   0  0  0  0  0
    3.9910    0.3180   -1.4290 H   0  0  0  0  0
    3.9560    1.4400   -0.0470 H   0  0  0  0  0
    4.9950   -0.0050    0.0050 H   0  0  0  0  0
  1  2  1  0  0  0
  1  3  1  0  0  0
  1  4  1  0  0  0
  1  5  1  0  0  0
  5  6  1  0  0  0
  5  7  1  0  0  0
  5 11  1  0  0  0
  7  8  1  0  0  0
  7 14  1  0  0  0
  7 15  1  0  0  0
  8  9  1  0  0  0
  8 16  1  0  0  0
  8 17  1  0  0  0
  9 10  1  0  0  0
 10 18  1  0  0  0
 10 19  1  0  0  0
 10 20  1  0  0  0
 11 12  2  0  0  0
 11 13  1  0  0  0
M  CHG  1   1   1
M  CHG  1  13  -1
M  END
