Methionine dipeptide
 OpenBabel04140706513D

 29 28  0  0  0  0  0  0  0  0999 V2000
   -0.7460    3.5080   -0.1110 C   0  0  0  0  0
   -0.7580    2.0130    0.0760 C   0  0  0  0  0
   -0.9040    1.5420    1.1840 O   0  0  0  0  0
   -0.6050    1.1990   -0.9870 N   0  0  0  0  0
   -0.6160   -0.2540   -0.8050 C   0  0  0  0  0
   -0.4810   -0.7430   -1.7700 H   0  0  0  0  0
    0.5200   -0.6590    0.1360 C   0  0  0  0  0
    1.8650   -0.3440   -0.5230 C   0  0  0  0  0
    3.2120   -0.8240    0.5930 S   0  0  0  0  0
    4.6420   -0.3500   -0.4180 C   0  0  0  0  0
   -1.9350   -0.6760   -0.2100 C   0  0  0  0  0
   -2.6270    0.1360    0.3670 O   0  0  0  0  0
   -2.3460   -1.9550   -0.3190 N   0  0  0  0  0
   -3.6280   -2.3650    0.2600 C   0  0  0  0  0
    0.2750    3.8780   -0.0180 H   0  0  0  0  0
   -1.1320    3.7530   -1.1010 H   0  0  0  0  0
   -1.3720    3.9750    0.6490 H   0  0  0  0  0
   -0.4880    1.5760   -1.8730 H   0  0  0  0  0
    0.4340   -0.1030    1.0700 H   0  0  0  0  0
    0.4580   -1.7270    0.3430 H   0  0  0  0  0
    1.9500   -0.9000   -1.4570 H   0  0  0  0  0
    1.9270    0.7240   -0.7290 H   0  0  0  0  0
    4.6240   -0.9060   -1.3560 H   0  0  0  0  0
    4.6000    0.7180   -0.6290 H   0  0  0  0  0
    5.5600   -0.5790    0.1220 H   0  0  0  0  0
   -1.7920   -2.6040   -0.7800 H   0  0  0  0  0
   -3.7880   -3.4260    0.0730 H   0  0  0  0  0
   -3.6160   -2.1820    1.3340 H   0  0  0  0  0
   -4.4330   -1.7900   -0.1980 H   0  0  0  0  0
  1  2  1  0  0  0
  1 15  1  0  0  0
  1 16  1  0  0  0
  1 17  1  0  0  0
  2  3  2  0  0  0
  2  4  1  0  0  0
  4  5  1  0  0  0
  4 18  1  0  0  0
  5  6  1  0  0  0
  5  7  1  0  0  0
  5 11  1  0  0  0
  7  8  1  0  0  0
  7 19  1  0  0  0
  7 20  1  0  0  0
  8  9  1  0  0  0
  8 21  1  0  0  0
  8 22  1  0  0  0
  9 10  1  0  0  0
 10 23  1  0  0  0
 10 24  1  0  0  0
 10 25  1  0  0  0
 11 12  2  0  0  0
 11 13  1  0  0  0
 13 14  1  0  0  0
 13 26  1  0  0  0
 14 27  1  0  0  0
 14 28  1  0  0  0
 14 29  1  0  0  0
M  END
