Methionine C-terminal anion
 OpenBabel04140706523D

 24 23  0  0  0  0  0  0  0  0999 V2000
    2.4470    2.7700   -0.6330 C   0  0  0  0  0
    2.0150    1.5270    0.1030 C   0  0  0  0  0
    2.5020    1.2610    1.1810 O   0  0  0  0  0
    1.0860    0.7130   -0.4370 N   0  0  0  0  0
    0.6670   -0.4950    0.2780 C   0  0  0  0  0
    0.6670   -0.3000    1.3510 H   0  0  0  0  0
   -0.7430   -0.8880   -0.1690 C   0  0  0  0  0
   -1.7340    0.1990    0.2550 C   0  0  0  0  0
   -3.4050   -0.2680   -0.2750 S   0  0  0  0  0
   -4.3400    1.1590    0.3420 C   0  0  0  0  0
    1.6230   -1.6180   -0.0290 C   0  0  0  0  0
    2.5670   -1.4280   -0.7770 O   0  0  0  0  0
    1.4510   -2.7180    0.4700 O   0  0  0  0  0
    3.2930    2.5340   -1.2790 H   0  0  0  0  0
    1.6190    3.1390   -1.2390 H   0  0  0  0  0
    2.7400    3.5340    0.0860 H   0  0  0  0  0
    0.6970    0.9260   -1.2990 H   0  0  0  0  0
   -0.7640   -0.9960   -1.2530 H   0  0  0  0  0
   -1.0210   -1.8340    0.2960 H   0  0  0  0  0
   -1.7130    0.3060    1.3390 H   0  0  0  0  0
   -1.4560    1.1450   -0.2100 H   0  0  0  0  0
   -4.2220    1.2310    1.4230 H   0  0  0  0  0
   -3.9650    2.0690   -0.1260 H   0  0  0  0  0
   -5.3950    1.0340    0.1000 H   0  0  0  0  0
  1  2  1  0  0  0
  1 14  1  0  0  0
  1 15  1  0  0  0
  1 16  1  0  0  0
  2  3  2  0  0  0
  2  4  1  0  0  0
  4  5  1  0  0  0
  4 17  1  0  0  0
  5  6  1  0  0  0
  5  7  1  0  0  0
  5 11  1  0  0  0
  7  8  1  0  0  0
  7 18  1  0  0  0
  7 19  1  0  0  0
  8  9  1  0  0  0
  8 20  1  0  0  0
  8 21  1  0  0  0
  9 10  1  0  0  0
 10 22  1  0  0  0
 10 23  1  0  0  0
 10 24  1  0  0  0
 11 12  2  0  0  0
 11 13  1  0  0  0
M  CHG  1  13  -1
M  END
