Phenylalanine dipeptide
 OpenBabel04140706513D

 32 32  0  0  0  0  0  0  0  0999 V2000
    0.5690    3.4190    0.5030 C   0  0  0  0  0
    0.7960    1.9910    0.0780 C   0  0  0  0  0
    1.2480    1.7500   -1.0210 O   0  0  0  0  0
    0.4960    0.9820    0.9210 N   0  0  0  0  0
    0.7170   -0.4060    0.5080 C   0  0  0  0  0
    0.4190   -1.0760    1.3140 H   0  0  0  0  0
   -0.1170   -0.7060   -0.7390 C   0  0  0  0  0
   -1.5820   -0.6200   -0.3970 C   0  0  0  0  0
   -2.2510    0.5830   -0.5210 C   0  0  0  0  0
   -3.5950    0.6630   -0.2070 C   0  0  0  0  0
   -4.2700   -0.4610    0.2310 C   0  0  0  0  0
   -3.6010   -1.6650    0.3550 C   0  0  0  0  0
   -2.2580   -1.7450    0.0360 C   0  0  0  0  0
    2.1770   -0.6120    0.1980 C   0  0  0  0  0
    2.8860    0.3410   -0.0470 O   0  0  0  0  0
    2.6960   -1.8560    0.1910 N   0  0  0  0  0
    4.1150   -2.0560   -0.1110 C   0  0  0  0  0
    0.8670    4.0890   -0.3030 H   0  0  0  0  0
   -0.4870    3.5680    0.7270 H   0  0  0  0  0
    1.1630    3.6330    1.3910 H   0  0  0  0  0
    0.1350    1.1750    1.8000 H   0  0  0  0  0
    0.1180    0.0210   -1.5170 H   0  0  0  0  0
    0.1140   -1.7090   -1.0980 H   0  0  0  0  0
   -1.7240    1.4620   -0.8640 H   0  0  0  0  0
   -4.1180    1.6030   -0.3040 H   0  0  0  0  0
   -5.3200   -0.3990    0.4770 H   0  0  0  0  0
   -4.1280   -2.5430    0.6980 H   0  0  0  0  0
   -1.7350   -2.6850    0.1330 H   0  0  0  0  0
    2.1290   -2.6190    0.3860 H   0  0  0  0  0
    4.3490   -3.1200   -0.0690 H   0  0  0  0  0
    4.3320   -1.6760   -1.1090 H   0  0  0  0  0
    4.7210   -1.5220    0.6210 H   0  0  0  0  0
  1  2  1  0  0  0
  1 18  1  0  0  0
  1 19  1  0  0  0
  1 20  1  0  0  0
  2  3  2  0  0  0
  2  4  1  0  0  0
  4  5  1  0  0  0
  4 21  1  0  0  0
  5  6  1  0  0  0
  5  7  1  0  0  0
  5 14  1  0  0  0
  7  8  1  0  0  0
  7 22  1  0  0  0
  7 23  1  0  0  0
  8 13  2  0  0  0
  8  9  1  0  0  0
  9 10  2  0  0  0
  9 24  1  0  0  0
 10 11  1  0  0  0
 10 25  1  0  0  0
 11 12  2  0  0  0
 11 26  1  0  0  0
 12 13  1  0  0  0
 12 27  1  0  0  0
 13 28  1  0  0  0
 14 15  2  0  0  0
 14 16  1  0  0  0
 16 17  1  0  0  0
 16 29  1  0  0  0
 17 30  1  0  0  0
 17 31  1  0  0  0
 17 32  1  0  0  0
M  END
