Proline dipeptide
 OpenBabel04140706513D

 26 26  0  0  0  0  0  0  0  0999 V2000
    2.9350    1.4450    0.3600 C   0  0  0  0  0
    1.5660    1.1380   -0.1900 C   0  0  0  0  0
    0.8600    2.0360   -0.5970 O   0  0  0  0  0
    1.1260   -0.1360   -0.2280 N   0  0  0  0  0
   -0.1820   -0.5750   -0.7360 C   0  0  0  0  0
   -0.2740   -0.3210   -1.7920 H   0  0  0  0  0
   -0.2510   -2.1070   -0.5570 C   0  0  0  0  0
    0.7920   -2.3740    0.5600 C   0  0  0  0  0
    1.8790   -1.3190    0.2260 C   0  0  0  0  0
   -1.2850    0.0860    0.0490 C   0  0  0  0  0
   -1.0490    0.5730    1.1350 O   0  0  0  0  0
   -2.5340    0.1370   -0.4550 N   0  0  0  0  0
   -3.6060    0.7800    0.3080 C   0  0  0  0  0
    3.1140    2.5200    0.3100 H   0  0  0  0  0
    2.9930    1.1150    1.3970 H   0  0  0  0  0
    3.6890    0.9240   -0.2300 H   0  0  0  0  0
   -1.2470   -2.4120   -0.2360 H   0  0  0  0  0
    0.0310   -2.6160   -1.4790 H   0  0  0  0  0
    0.3620   -2.1980    1.5460 H   0  0  0  0  0
    1.1940   -3.3840    0.4850 H   0  0  0  0  0
    2.5330   -1.6860   -0.5660 H   0  0  0  0  0
    2.4590   -1.0770    1.1160 H   0  0  0  0  0
   -2.7220   -0.2520   -1.3230 H   0  0  0  0  0
   -3.7290    0.2700    1.2630 H   0  0  0  0  0
   -3.3500    1.8250    0.4840 H   0  0  0  0  0
   -4.5370    0.7240   -0.2560 H   0  0  0  0  0
  1  2  1  0  0  0
  1 14  1  0  0  0
  1 15  1  0  0  0
  1 16  1  0  0  0
  2  3  2  0  0  0
  2  4  1  0  0  0
  4  9  1  0  0  0
  4  5  1  0  0  0
  5  6  1  0  0  0
  5  7  1  0  0  0
  5 10  1  0  0  0
  7  8  1  0  0  0
  7 17  1  0  0  0
  7 18  1  0  0  0
  8  9  1  0  0  0
  8 19  1  0  0  0
  8 20  1  0  0  0
  9 21  1  0  0  0
  9 22  1  0  0  0
 10 11  2  0  0  0
 10 12  1  0  0  0
 12 13  1  0  0  0
 12 23  1  0  0  0
 13 24  1  0  0  0
 13 25  1  0  0  0
 13 26  1  0  0  0
M  END
