Proline N-terminal cation
 OpenBabel04140706513D

 22 22  0  0  0  0  0  0  0  0999 V2000
    1.3130   -1.0770    0.1680 N   0  0  0  0  0
    1.2590   -1.8200    0.8490 H   0  0  0  0  0
    1.0830   -1.4240   -0.7510 H   0  0  0  0  0
    0.4060    0.0380    0.5440 C   0  0  0  0  0
    0.4290    0.2000    1.6220 H   0  0  0  0  0
    0.9740    1.2680   -0.1960 C   0  0  0  0  0
    2.4610    0.9370   -0.4410 C   0  0  0  0  0
    2.6670   -0.4670    0.1700 C   0  0  0  0  0
   -1.0000   -0.2500    0.0870 C   0  0  0  0  0
   -1.2470   -1.2830   -0.5000 O   0  0  0  0  0
   -1.9840    0.6390    0.3300 N   0  0  0  0  0
   -3.3510    0.3580   -0.1150 C   0  0  0  0  0
    0.4570    1.4110   -1.1450 H   0  0  0  0  0
    0.8820    2.1600    0.4240 H   0  0  0  0  0
    2.6740    0.9170   -1.5090 H   0  0  0  0  0
    3.0980    1.6660    0.0600 H   0  0  0  0  0
    3.0440   -0.3860    1.1900 H   0  0  0  0  0
    3.3520   -1.0520   -0.4430 H   0  0  0  0  0
   -1.7860    1.4640    0.7990 H   0  0  0  0  0
   -4.0020    1.1850    0.1680 H   0  0  0  0  0
   -3.3640    0.2410   -1.1990 H   0  0  0  0  0
   -3.7050   -0.5600    0.3540 H   0  0  0  0  0
  1  2  1  0  0  0
  1  3  1  0  0  0
  1  8  1  0  0  0
  1  4  1  0  0  0
  4  5  1  0  0  0
  4  6  1  0  0  0
  4  9  1  0  0  0
  6  7  1  0  0  0
  6 13  1  0  0  0
  6 14  1  0  0  0
  7  8  1  0  0  0
  7 15  1  0  0  0
  7 16  1  0  0  0
  8 17  1  0  0  0
  8 18  1  0  0  0
  9 10  2  0  0  0
  9 11  1  0  0  0
 11 12  1  0  0  0
 11 19  1  0  0  0
 12 20  1  0  0  0
 12 21  1  0  0  0
 12 22  1  0  0  0
M  CHG  1   1   1
M  END
