Serine dipeptide
 OpenBabel04140706513D

 23 22  0  0  0  0  0  0  0  0999 V2000
    3.4810    0.9120    0.6700 C   0  0  0  0  0
    2.3500    0.3590   -0.1590 C   0  0  0  0  0
    2.5700   -0.0870   -1.2650 O   0  0  0  0  0
    1.0930    0.3610    0.3280 N   0  0  0  0  0
   -0.0060   -0.1760   -0.4770 C   0  0  0  0  0
    0.1730    0.0450   -1.5300 H   0  0  0  0  0
   -0.0890   -1.6910   -0.2810 C   0  0  0  0  0
   -0.4390   -1.9780    1.0740 O   0  0  0  0  0
   -1.3030    0.4580   -0.0450 C   0  0  0  0  0
   -1.3080    1.2780    0.8490 O   0  0  0  0  0
   -2.4560    0.1140   -0.6500 N   0  0  0  0  0
   -3.7170    0.7310   -0.2300 C   0  0  0  0  0
    3.5970    1.9750    0.4620 H   0  0  0  0  0
    3.2590    0.7700    1.7270 H   0  0  0  0  0
    4.4040    0.3900    0.4180 H   0  0  0  0  0
    0.9170    0.7180    1.2130 H   0  0  0  0  0
   -0.8480   -2.1030   -0.9470 H   0  0  0  0  0
    0.8770   -2.1410   -0.5100 H   0  0  0  0  0
   -0.4810   -2.9400    1.1550 H   0  0  0  0  0
   -2.4520   -0.5420   -1.3650 H   0  0  0  0  0
   -3.8960    0.5100    0.8230 H   0  0  0  0  0
   -3.6580    1.8100   -0.3690 H   0  0  0  0  0
   -4.5350    0.3310   -0.8290 H   0  0  0  0  0
  1  2  1  0  0  0
  1 13  1  0  0  0
  1 14  1  0  0  0
  1 15  1  0  0  0
  2  3  2  0  0  0
  2  4  1  0  0  0
  4  5  1  0  0  0
  4 16  1  0  0  0
  5  6  1  0  0  0
  5  7  1  0  0  0
  5  9  1  0  0  0
  7  8  1  0  0  0
  7 17  1  0  0  0
  7 18  1  0  0  0
  8 19  1  0  0  0
  9 10  2  0  0  0
  9 11  1  0  0  0
 11 12  1  0  0  0
 11 20  1  0  0  0
 12 21  1  0  0  0
 12 22  1  0  0  0
 12 23  1  0  0  0
M  END
