Tyrosine zwitterion
 OpenBabel04140706523D

 24 24  0  0  0  0  0  0  0  0999 V2000
    1.5400    1.4490    0.7150 N   0  0  0  0  0
    1.8210    2.0110   -0.0750 H   0  0  0  0  0
    2.0920    1.7030    1.5210 H   0  0  0  0  0
    0.5640    1.6090    0.9120 H   0  0  0  0  0
    1.7510    0.0290    0.4050 C   0  0  0  0  0
    1.4470   -0.5780    1.2570 H   0  0  0  0  0
    0.9150   -0.3550   -0.8180 C   0  0  0  0  0
   -0.5500   -0.2330   -0.4840 C   0  0  0  0  0
   -1.2090    0.9640   -0.6970 C   0  0  0  0  0
   -2.5510    1.0780   -0.3910 C   0  0  0  0  0
   -3.2380   -0.0080    0.1300 C   0  0  0  0  0
   -4.5580    0.1020    0.4320 O   0  0  0  0  0
   -2.5740   -1.2080    0.3430 C   0  0  0  0  0
   -1.2330   -1.3190    0.0310 C   0  0  0  0  0
    3.2090   -0.2100    0.1110 C   0  0  0  0  0
    3.6320   -1.3500    0.0080 O   0  0  0  0  0
    3.9670    0.7360   -0.0240 O   0  0  0  0  0
    1.1550    0.3110   -1.6460 H   0  0  0  0  0
    1.1380   -1.3840   -1.1020 H   0  0  0  0  0
   -0.6740    1.8090   -1.1030 H   0  0  0  0  0
   -3.0650    2.0140   -0.5570 H   0  0  0  0  0
   -5.0480   -0.1490   -0.3630 H   0  0  0  0  0
   -3.1070   -2.0560    0.7490 H   0  0  0  0  0
   -0.7160   -2.2530    0.1960 H   0  0  0  0  0
  1  2  1  0  0  0
  1  3  1  0  0  0
  1  4  1  0  0  0
  1  5  1  0  0  0
  5  6  1  0  0  0
  5  7  1  0  0  0
  5 15  1  0  0  0
  7  8  1  0  0  0
  7 18  1  0  0  0
  7 19  1  0  0  0
  8 14  2  0  0  0
  8  9  1  0  0  0
  9 10  2  0  0  0
  9 20  1  0  0  0
 10 11  1  0  0  0
 10 21  1  0  0  0
 11 12  1  0  0  0
 11 13  2  0  0  0
 12 22  1  0  0  0
 13 14  1  0  0  0
 13 23  1  0  0  0
 14 24  1  0  0  0
 15 16  2  0  0  0
 15 17  1  0  0  0
M  CHG  1   1   1
M  CHG  1  17  -1
M  END
