Tyrosine C-terminal anion
 OpenBabel04140706523D

 28 28  0  0  0  0  0  0  0  0999 V2000
   -1.7430    3.2250    0.2130 C   0  0  0  0  0
   -1.7460    1.8230   -0.3400 C   0  0  0  0  0
   -2.1140    1.6220   -1.4790 O   0  0  0  0  0
   -1.3410    0.7940    0.4290 N   0  0  0  0  0
   -1.3450   -0.5690   -0.1090 C   0  0  0  0  0
   -1.0870   -0.5420   -1.1670 H   0  0  0  0  0
   -0.3190   -1.4180    0.6450 C   0  0  0  0  0
    1.0660   -0.8870    0.3780 C   0  0  0  0  0
    1.6040    0.0830    1.2030 C   0  0  0  0  0
    2.8730    0.5710    0.9600 C   0  0  0  0  0
    3.6080    0.0880   -0.1130 C   0  0  0  0  0
    4.8570    0.5660   -0.3540 O   0  0  0  0  0
    3.0650   -0.8860   -0.9390 C   0  0  0  0  0
    1.7980   -1.3750   -0.6890 C   0  0  0  0  0
   -2.7160   -1.1720    0.0580 C   0  0  0  0  0
   -3.1370   -2.0390   -0.7760 O   0  0  0  0  0
   -3.4550   -0.8140    1.0340 O   0  0  0  0  0
   -2.1000    3.9180   -0.5490 H   0  0  0  0  0
   -2.3970    3.2730    1.0840 H   0  0  0  0  0
   -0.7290    3.4980    0.5050 H   0  0  0  0  0
   -1.0480    0.9550    1.3400 H   0  0  0  0  0
   -0.5260   -1.3720    1.7140 H   0  0  0  0  0
   -0.3840   -2.4520    0.3060 H   0  0  0  0  0
    1.0320    0.4590    2.0390 H   0  0  0  0  0
    3.2940    1.3290    1.6050 H   0  0  0  0  0
    5.4710    0.0050    0.1390 H   0  0  0  0  0
    3.6350   -1.2630   -1.7760 H   0  0  0  0  0
    1.3750   -2.1320   -1.3320 H   0  0  0  0  0
  1  2  1  0  0  0
  1 18  1  0  0  0
  1 19  1  0  0  0
  1 20  1  0  0  0
  2  3  2  0  0  0
  2  4  1  0  0  0
  4  5  1  0  0  0
  4 21  1  0  0  0
  5  6  1  0  0  0
  5  7  1  0  0  0
  5 15  1  0  0  0
  7  8  1  0  0  0
  7 22  1  0  0  0
  7 23  1  0  0  0
  8 14  2  0  0  0
  8  9  1  0  0  0
  9 10  2  0  0  0
  9 24  1  0  0  0
 10 11  1  0  0  0
 10 25  1  0  0  0
 11 12  1  0  0  0
 11 13  2  0  0  0
 12 26  1  0  0  0
 13 14  1  0  0  0
 13 27  1  0  0  0
 14 28  1  0  0  0
 15 16  2  0  0  0
 15 17  1  0  0  0
M  CHG  1  17  -1
M  END
