Valine dipeptide
 OpenBabel04140706513D

 28 27  0  0  0  0  0  0  0  0999 V2000
    3.1810    1.5740    0.5450 C   0  0  0  0  0
    2.1320    0.7730   -0.1830 C   0  0  0  0  0
    2.4080    0.2150   -1.2230 O   0  0  0  0  0
    0.8860    0.6770    0.3240 N   0  0  0  0  0
   -0.1340   -0.1020   -0.3830 C   0  0  0  0  0
    0.0140   -0.0020   -1.4590 H   0  0  0  0  0
   -0.0170   -1.5750    0.0140 C   0  0  0  0  0
    1.3270   -2.1270   -0.4650 C   0  0  0  0  0
   -0.1080   -1.7020    1.5360 C   0  0  0  0  0
   -1.5020    0.4110   -0.0140 C   0  0  0  0  0
   -1.6530    1.0660    0.9950 O   0  0  0  0  0
   -2.5590    0.1420   -0.8070 N   0  0  0  0  0
   -3.8990    0.5840   -0.4150 C   0  0  0  0  0
    3.1560    2.6060    0.1960 H   0  0  0  0  0
    2.9810    1.5470    1.6160 H   0  0  0  0  0
    4.1640    1.1480    0.3480 H   0  0  0  0  0
    0.6650    1.1230    1.1560 H   0  0  0  0  0
   -0.8270   -2.1400   -0.4470 H   0  0  0  0  0
    2.1350   -1.6440    0.0860 H   0  0  0  0  0
    1.3610   -3.2020   -0.2910 H   0  0  0  0  0
    1.4440   -1.9270   -1.5300 H   0  0  0  0  0
   -1.0650   -1.3080    1.8770 H   0  0  0  0  0
   -0.0240   -2.7510    1.8180 H   0  0  0  0  0
    0.7020   -1.1360    1.9960 H   0  0  0  0  0
   -2.4310   -0.3450   -1.6360 H   0  0  0  0  0
   -4.6190    0.2780   -1.1740 H   0  0  0  0  0
   -4.1660    0.1340    0.5410 H   0  0  0  0  0
   -3.9110    1.6700   -0.3210 H   0  0  0  0  0
  1  2  1  0  0  0
  1 14  1  0  0  0
  1 15  1  0  0  0
  1 16  1  0  0  0
  2  3  2  0  0  0
  2  4  1  0  0  0
  4  5  1  0  0  0
  4 17  1  0  0  0
  5  6  1  0  0  0
  5  7  1  0  0  0
  5 10  1  0  0  0
  7  8  1  0  0  0
  7  9  1  0  0  0
  7 18  1  0  0  0
  8 19  1  0  0  0
  8 20  1  0  0  0
  8 21  1  0  0  0
  9 22  1  0  0  0
  9 23  1  0  0  0
  9 24  1  0  0  0
 10 11  2  0  0  0
 10 12  1  0  0  0
 12 13  1  0  0  0
 12 25  1  0  0  0
 13 26  1  0  0  0
 13 27  1  0  0  0
 13 28  1  0  0  0
M  END
