Valine zwitterion
 OpenBabel04140706523D

 19 18  0  0  0  0  0  0  0  0999 V2000
   -0.3340   -1.6690   -0.0800 N   0  0  0  0  0
   -1.2490   -1.9700   -0.3800 H   0  0  0  0  0
   -0.3030   -1.6390    0.9280 H   0  0  0  0  0
    0.3610   -2.3180   -0.4190 H   0  0  0  0  0
   -0.0570   -0.3310   -0.6190 C   0  0  0  0  0
   -0.0900   -0.3640   -1.7080 H   0  0  0  0  0
   -1.1100    0.6530   -0.1060 C   0  0  0  0  0
   -2.4980    0.1980   -0.5600 C   0  0  0  0  0
   -1.0630    0.7000    1.4220 C   0  0  0  0  0
    1.3110    0.1180   -0.1720 C   0  0  0  0  0
    1.8120    1.1190   -0.6550 O   0  0  0  0  0
    1.9160   -0.5210    0.6730 O   0  0  0  0  0
   -0.9040    1.6460   -0.5060 H   0  0  0  0  0
   -2.7030   -0.7950   -0.1600 H   0  0  0  0  0
   -3.2480    0.8990   -0.1950 H   0  0  0  0  0
   -2.5320    0.1650   -1.6490 H   0  0  0  0  0
   -1.8130    1.4010    1.7880 H   0  0  0  0  0
   -1.2680   -0.2930    1.8220 H   0  0  0  0  0
   -0.0740    1.0240    1.7460 H   0  0  0  0  0
  1  2  1  0  0  0
  1  3  1  0  0  0
  1  4  1  0  0  0
  1  5  1  0  0  0
  5  6  1  0  0  0
  5  7  1  0  0  0
  5 10  1  0  0  0
  7  8  1  0  0  0
  7  9  1  0  0  0
  7 13  1  0  0  0
  8 14  1  0  0  0
  8 15  1  0  0  0
  8 16  1  0  0  0
  9 17  1  0  0  0
  9 18  1  0  0  0
  9 19  1  0  0  0
 10 11  2  0  0  0
 10 12  1  0  0  0
M  CHG  1   1   1
M  CHG  1  12  -1
M  END
