    13
C6
C            0.000000000000000        0.000000000000000        0.000000000000000
O           -0.066061862416265        1.212560786910549        0.778030955927182
H            0.699507243751861        1.690526692207148        1.393703382672882
O            0.992889033805400        0.649644103098206        0.819837731419277
H            1.771220708895312        0.214818548628828        1.451285702935640
O            1.034550437653414       -0.549440045962623        0.841321001665667
H            1.029012662649010       -1.452124027341311        1.456732216066510
O            0.017260945279762       -1.185607511211110        0.820997496419963
H           -0.784908848740743       -1.643358459733131        1.404596408934622
O           -1.041689950941904       -0.622690827398768        0.779190720927868
H           -1.856622313884195       -0.167650316154810        1.347014088671864
O           -1.083351354789919        0.576393321662061        0.757707450681478
H           -1.114414267637895        1.499292259815329        1.341567575540994
