    14
C7h
C           -0.345578765665209       -2.475803457981939        0.031185469151629
O           -1.333277991629751       -3.045038040289175        0.010636809495653
C           -2.150361287668616       -1.274361567715040       -0.044146421681273
O           -3.210686322732038       -0.857038066805374       -0.083541011225505
C           -2.335877900681184        0.886700575279868       -0.086235156565287
O           -2.670382366751737        1.976329051373425       -0.114810746567790
C           -0.762430811255196        2.380059099693580       -0.063387059679022
O           -0.119226022734156        3.321480084102326       -0.059625648032104
C            1.385142229800193        2.081184577680184        0.007192786005924
O            2.521709948169890        2.165488867655953        0.040458779613320
C            2.489674920063769        0.215135620244960        0.072356317122314
O            3.263746894593440       -0.621159634058120        0.110076921001214
C            1.719431615406243       -1.812914847201612        0.083034065645714
O            1.548115861084352       -2.940062261979033        0.096804895715213
