7
D2d(Allene 1,2-propanodiene)
C       0.0000000000   0.0000000000   0.0000000000
C       0.0000000000   0.0000000000   1.2956512452
C       0.0000000000   0.0000000000  -1.2956512452
H       0.6519393806   0.6519393806   1.8501489008
H      -0.6519393806  -0.6519393806   1.8501489008
H       0.6519393806  -0.6519393806  -1.8501489008
H      -0.6519393806   0.6519393806  -1.8501489008
