    33
D8d
Fe           0.000000000000000        0.000000000000000        0.000000000000000
C            1.766232741335779        0.098157304317633        2.053464472097881
H            2.865057526322169        0.136924382833099        2.086346161880943
C            1.275953464455129       -1.213168451819556        2.060605337074600
H            2.079944060664980       -1.962979809644175        2.097781255130922
C            0.002504308800703       -1.794100503131082        2.031533018247023
H            0.040693928994715       -2.893260973103509        2.051226015972881
C           -1.308145481237703       -1.304336732775876        1.983277685694710
H           -2.058127798627305       -2.108973018810648        1.973951872106080
C           -1.888235034177041       -0.030774115069034        1.944106658769982
H           -2.987059819163430       -0.069541193584500        1.911224968986920
C           -1.397955757296391        1.280551641068155        1.936965793793263
H           -2.201946353506241        2.030362998892774        1.899789875736942
C           -0.124506601641964        1.861483692379680        1.966038112620840
H           -0.162696221835975        2.960644162352107        1.946345114894982
C            1.186143188396442        1.371719922024473        2.014293445173153
H            1.936125505786045        2.176356208059245        2.023619258761783
C            1.773447622007811       -0.673598798508630       -1.935736935063286
H            2.803243885609416       -1.058413189502007       -1.897822030915040
C            0.818924672602863       -1.697681344371068       -1.947606152357906
H            1.274709321340914       -2.698337686855015       -1.916828916917048
C           -0.579579599197997       -1.747021262481661       -1.989455575718167
H           -0.964799031032793       -2.777348642303739       -1.983844896093602
C           -1.602840358010535       -0.792715897977601       -2.036770380517122
H           -2.603407551739012       -1.249162509722372       -2.059612916738789
C           -1.651445329166549        0.606215609260033       -2.061834195804577
H           -2.681241592768154        0.991030000253409       -2.099749099952823
C           -0.696922379761601        1.630298155122470       -2.049964978509957
H           -1.152707028499652        2.630954497606417       -2.080742213950815
C            0.701581892039259        1.679638073233063       -2.008115555149696
H            1.086801323874055        2.709965453055140       -2.013726234774261
C            1.724842650851796        0.725332708729003       -1.960800750350741
H            2.725409844580273        1.181779320473773       -1.937958214129074
