182
I (Icosahedron decorated)
H      0.0  1.0  1.618033988749894
H      0.0  1.0 -1.618033988749894
H      0.0 -1.0  1.618033988749894
H      0.0 -1.0 -1.618033988749894
H      1.0  1.618033988749894  0.0
H      1.0 -1.618033988749894  0.0
H     -1.0  1.618033988749894  0.0
H     -1.0 -1.618033988749894  0.0
H      1.618033988749894  0.0  1.0
H      1.618033988749894  0.0 -1.0
H     -1.618033988749894  0.0  1.0
H     -1.618033988749894  0.0 -1.0
F      0.539344662917    0.000000000000    1.412022659167
F     -0.539344662917    0.000000000000   -1.412022659167
F     -0.539344662917    0.000000000000    1.412022659167
F     -0.872677996250    0.872677996250    0.872677996250
F      0.000000000000    1.412022659167    0.539344662917
F      0.872677996250    0.872677996250    0.872677996250
F      0.539344662917    0.000000000000   -1.412022659167
F     -0.872677996250    0.872677996250   -0.872677996250
F      0.000000000000    1.412022659167   -0.539344662917
F      0.872677996250    0.872677996250   -0.872677996250
F     -0.872677996250   -0.872677996250    0.872677996250
F      0.000000000000   -1.412022659167    0.539344662917
F      0.872677996250   -0.872677996250    0.872677996250
F     -0.872677996250   -0.872677996250   -0.872677996250
F      0.000000000000   -1.412022659167   -0.539344662917
F      0.872677996250   -0.872677996250   -0.872677996250
F      1.412022659167    0.539344662917    0.000000000000
F      1.412022659167   -0.539344662917    0.000000000000
F     -1.412022659167    0.539344662917    0.000000000000
F     -1.412022659167   -0.539344662917    0.000000000000
B      0.000000000000    0.000000000000    1.618033988750
B      0.000000000000    0.000000000000   -1.618033988750
B     -0.500000000000    1.309016994375    0.809016994375
B      0.500000000000    1.309016994375    0.809016994375
B     -0.809016994375    0.500000000000    1.309016994375
B      0.809016994375    0.500000000000    1.309016994375
B     -0.500000000000    1.309016994375   -0.809016994375
B      0.500000000000    1.309016994375   -0.809016994375
B     -0.809016994375    0.500000000000   -1.309016994375
B      0.809016994375    0.500000000000   -1.309016994375
B     -0.500000000000   -1.309016994375    0.809016994375
B      0.500000000000   -1.309016994375    0.809016994375
B     -0.809016994375   -0.500000000000    1.309016994375
B      0.809016994375   -0.500000000000    1.309016994375
B     -0.500000000000   -1.309016994375   -0.809016994375
B      0.500000000000   -1.309016994375   -0.809016994375
B     -0.809016994375   -0.500000000000   -1.309016994375
B      0.809016994375   -0.500000000000   -1.309016994375
B      0.000000000000    1.618033988750    0.000000000000
B      1.309016994375    0.809016994375   -0.500000000000
B      1.309016994375    0.809016994375    0.500000000000
B      0.000000000000   -1.618033988750    0.000000000000
B      1.309016994375   -0.809016994375   -0.500000000000
B      1.309016994375   -0.809016994375    0.500000000000
B     -1.309016994375    0.809016994375   -0.500000000000
B     -1.309016994375    0.809016994375    0.500000000000
B     -1.309016994375   -0.809016994375   -0.500000000000
B     -1.309016994375   -0.809016994375    0.500000000000
B      1.618033988750    0.000000000000    0.000000000000
B     -1.618033988750    0.000000000000    0.000000000000
N      0.134836165729    0.500000000000    1.566531156354
N     -0.343169499062    1.045423747656    1.229440742031
N      0.125000000000    1.180259913385    1.146107408698
N     -0.337090414323    0.625000000000    1.489276907760
N      0.420423747656    0.843169499062    1.354440742031
N     -0.134836165729    0.500000000000   -1.566531156354
N     -0.125000000000    1.180259913385   -1.146107408698
N      0.343169499062    1.045423747656   -1.229440742031
N     -0.420423747656    0.843169499062   -1.354440742031
N      0.337090414323    0.625000000000   -1.489276907760
N     -0.134836165729   -0.500000000000    1.566531156354
N     -0.125000000000   -1.180259913385    1.146107408698
N      0.343169499062   -1.045423747656    1.229440742031
N     -0.420423747656   -0.843169499062    1.354440742031
N      0.337090414323   -0.625000000000    1.489276907760
N      0.134836165729   -0.500000000000   -1.566531156354
N     -0.343169499062   -1.045423747656   -1.229440742031
N      0.125000000000   -1.180259913385   -1.146107408698
N     -0.337090414323   -0.625000000000   -1.489276907760
N      0.420423747656   -0.843169499062   -1.354440742031
N      0.625000000000    1.489276907760   -0.337090414323
N      0.843169499062    1.354440742031    0.420423747656
N      0.500000000000    1.566531156354    0.134836165729
N      1.045423747656    1.229440742031   -0.343169499062
N      1.180259913385    1.146107408698    0.125000000000
N      0.843169499062   -1.354440742031   -0.420423747656
N      0.625000000000   -1.489276907760    0.337090414323
N      0.500000000000   -1.566531156354   -0.134836165729
N      1.180259913385   -1.146107408698   -0.125000000000
N      1.045423747656   -1.229440742031    0.343169499062
N     -0.843169499062    1.354440742031   -0.420423747656
N     -0.625000000000    1.489276907760    0.337090414323
N     -0.500000000000    1.566531156354   -0.134836165729
N     -1.180259913385    1.146107408698   -0.125000000000
N     -1.045423747656    1.229440742031    0.343169499062
N     -0.625000000000   -1.489276907760   -0.337090414323
N     -0.843169499062   -1.354440742031    0.420423747656
N     -0.500000000000   -1.566531156354    0.134836165729
N     -1.045423747656   -1.229440742031   -0.343169499062
N     -1.180259913385   -1.146107408698    0.125000000000
N      1.229440742031   -0.343169499062    1.045423747656
N      1.146107408698    0.125000000000    1.180259913385
N      1.489276907760   -0.337090414323    0.625000000000
N      1.354440742031    0.420423747656    0.843169499062
N      1.566531156354    0.134836165729    0.500000000000
N      1.146107408698   -0.125000000000   -1.180259913385
N      1.229440742031    0.343169499062   -1.045423747656
N      1.354440742031   -0.420423747656   -0.843169499062
N      1.489276907760    0.337090414323   -0.625000000000
N      1.566531156354   -0.134836165729   -0.500000000000
N     -1.146107408698   -0.125000000000    1.180259913385
N     -1.229440742031    0.343169499062    1.045423747656
N     -1.354440742031   -0.420423747656    0.843169499062
N     -1.489276907760    0.337090414323    0.625000000000
N     -1.566531156354   -0.134836165729    0.500000000000
N     -1.229440742031   -0.343169499062   -1.045423747656
N     -1.146107408698    0.125000000000   -1.180259913385
N     -1.489276907760   -0.337090414323   -0.625000000000
N     -1.354440742031    0.420423747656   -0.843169499062
N     -1.566531156354    0.134836165729   -0.500000000000
O     -0.134836165729   -0.500000000000   -1.566531156354
O     -0.134836165729    0.500000000000    1.566531156354
O     -0.125000000000    1.180259913385    1.146107408698
O      0.343169499062    1.045423747656    1.229440742031
O     -0.420423747656    0.843169499062    1.354440742031
O      0.337090414323    0.625000000000    1.489276907760
O      0.134836165729    0.500000000000   -1.566531156354
O     -0.343169499062    1.045423747656   -1.229440742031
O      0.125000000000    1.180259913385   -1.146107408698
O     -0.337090414323    0.625000000000   -1.489276907760
O      0.420423747656    0.843169499062   -1.354440742031
O      0.134836165729   -0.500000000000    1.566531156354
O     -0.343169499062   -1.045423747656    1.229440742031
O      0.125000000000   -1.180259913385    1.146107408698
O     -0.337090414323   -0.625000000000    1.489276907760
O      0.420423747656   -0.843169499062    1.354440742031
O     -0.125000000000   -1.180259913385   -1.146107408698
O      0.343169499062   -1.045423747656   -1.229440742031
O     -0.420423747656   -0.843169499062   -1.354440742031
O      0.337090414323   -0.625000000000   -1.489276907760
O      0.843169499062    1.354440742031   -0.420423747656
O      0.625000000000    1.489276907760    0.337090414323
O      0.500000000000    1.566531156354   -0.134836165729
O      1.180259913385    1.146107408698   -0.125000000000
O      1.045423747656    1.229440742031    0.343169499062
O      0.625000000000   -1.489276907760   -0.337090414323
O      0.843169499062   -1.354440742031    0.420423747656
O      0.500000000000   -1.566531156354    0.134836165729
O      1.045423747656   -1.229440742031   -0.343169499062
O      1.180259913385   -1.146107408698    0.125000000000
O     -0.625000000000    1.489276907760   -0.337090414323
O     -0.843169499062    1.354440742031    0.420423747656
O     -0.500000000000    1.566531156354    0.134836165729
O     -1.045423747656    1.229440742031   -0.343169499062
O     -1.180259913385    1.146107408698    0.125000000000
O     -0.843169499062   -1.354440742031   -0.420423747656
O     -0.625000000000   -1.489276907760    0.337090414323
O     -0.500000000000   -1.566531156354   -0.134836165729
O     -1.180259913385   -1.146107408698   -0.125000000000
O     -1.045423747656   -1.229440742031    0.343169499062
O      1.146107408698   -0.125000000000    1.180259913385
O      1.229440742031    0.343169499062    1.045423747656
O      1.354440742031   -0.420423747656    0.843169499062
O      1.489276907760    0.337090414323    0.625000000000
O      1.566531156354   -0.134836165729    0.500000000000
O      1.229440742031   -0.343169499062   -1.045423747656
O      1.146107408698    0.125000000000   -1.180259913385
O      1.489276907760   -0.337090414323   -0.625000000000
O      1.354440742031    0.420423747656   -0.843169499062
O      1.566531156354    0.134836165729   -0.500000000000
O     -1.229440742031   -0.343169499062    1.045423747656
O     -1.146107408698    0.125000000000    1.180259913385
O     -1.489276907760   -0.337090414323    0.625000000000
O     -1.354440742031    0.420423747656    0.843169499062
O     -1.566531156354    0.134836165729    0.500000000000
O     -1.146107408698   -0.125000000000   -1.180259913385
O     -1.229440742031    0.343169499062   -1.045423747656
O     -1.354440742031   -0.420423747656   -0.843169499062
O     -1.489276907760    0.337090414323   -0.625000000000
O     -1.566531156354   -0.134836165729   -0.500000000000
