20
Ih (Dodecahedron)
H      0.0  0.618033988749894  1.618033988749894
H      0.0  0.618033988749894 -1.618033988749894
H      0.0 -0.618033988749894  1.618033988749894
H      0.0 -0.618033988749894 -1.618033988749894
H      1.618033988749894  0.0  0.618033988749894
H      1.618033988749894  0.0 -0.618033988749894
H     -1.618033988749894  0.0  0.618033988749894
H     -1.618033988749894  0.0 -0.618033988749894
H      0.618033988749894  1.618033988749894  0.0
H      0.618033988749894 -1.618033988749894  0.0
H     -0.618033988749894  1.618033988749894  0.0
H     -0.618033988749894 -1.618033988749894  0.0
H      1.0  1.0  1.0
H      1.0  1.0 -1.0
H      1.0 -1.0  1.0
H      1.0 -1.0 -1.0
H     -1.0  1.0  1.0
H     -1.0  1.0 -1.0
H     -1.0 -1.0  1.0
H     -1.0 -1.0 -1.0
