16
Oh (Cubane)
C  -0.019   1.526   0.010
C   0.002  -0.004   0.002
C   1.532   0.017  -0.012
C   1.511   1.547  -0.004
C   1.497   1.555  -1.534
C  -0.033   1.534  -1.519
C  -0.013   0.004  -1.528
C   1.517   0.025  -1.542
H  -0.650   2.142   0.650
H  -0.612  -0.645   0.635
H   2.175  -0.607   0.609
H   2.137   2.180   0.624
H   2.111   2.197  -2.165
H  -0.676   2.159  -2.139
H  -0.640  -0.630  -2.154
H   2.150  -0.592  -2.180
