    16
S4 (1,3,5,7-Tetrafluorocyclooctane boat)
C           -1.193420268428155        1.193420268428155        0.382188697629609
C            0.027392339593985        1.673343016873244        0.347166871550150
C            1.193420268428155        1.193420268428155       -0.382188697629609
C            1.673343016873244       -0.027392339593985       -0.347166871550150
C            1.193420268428155       -1.193420268428155        0.382188697629609
C           -0.027392339593985       -1.673343016873244        0.347166871550150
C           -1.193420268428155       -1.193420268428155       -0.382188697629609
C           -1.673343016873244        0.027392339593985       -0.347166871550150
H           -1.936139059688988        1.737743126399946        0.929226218804663
H            1.737743126399946        1.936139059688988       -0.929226218804663
H            1.936139059688988       -1.737743126399946        0.929226218804663
H           -1.737743126399946       -1.936139059688988       -0.929226218804663
F            0.276209351519584        2.835426310627127        1.010222585025409
F            2.835426310627127       -0.276209351519584       -1.010222585025409
F           -0.276209351519584       -2.835426310627127        1.010222585025409
F           -2.835426310627127        0.276209351519584       -1.010222585025409
