75
T (Cube with face ornaments)
C       0.0  0.0  0.0
H       1.0  1.0  1.0
H      -1.0  1.0  1.0
H       1.0 -1.0  1.0
H      -1.0 -1.0  1.0
H       1.0  1.0 -1.0
H      -1.0  1.0 -1.0
H       1.0 -1.0 -1.0
H      -1.0 -1.0 -1.0
F       1.0  0.0  0.0
F       0.0  1.0  0.0
F       0.0  0.0  1.0
F      -1.0  0.0  0.0
F       0.0 -1.0  0.0
F       0.0  0.0 -1.0
B       1.0000000000       -1.0000000000        0.0000000000
B      -1.0000000000        1.0000000000        0.0000000000
B      -1.0000000000       -1.0000000000        0.0000000000
B       0.0000000000        1.0000000000        1.0000000000
B       0.0000000000        1.0000000000       -1.0000000000
B       0.0000000000       -1.0000000000        1.0000000000
B       0.0000000000       -1.0000000000       -1.0000000000
B       1.0000000000        0.0000000000        1.0000000000
B      -1.0000000000        0.0000000000        1.0000000000
B       1.0000000000        0.0000000000       -1.0000000000
B      -1.0000000000        0.0000000000       -1.0000000000
B       1.0000000000        1.0000000000        0.0000000000
N       1.0000000000       -0.6666666667       -0.3333333333
N      -1.0000000000        0.6666666667       -0.3333333333
N      -1.0000000000       -0.6666666667        0.3333333333
N       0.3333333333        1.0000000000        0.6666666667
N      -0.3333333333        1.0000000000       -0.6666666667
N      -0.3333333333       -1.0000000000        0.6666666667
N       0.3333333333       -1.0000000000       -0.6666666667
N       0.6666666667        0.3333333333        1.0000000000
N      -0.6666666667       -0.3333333333        1.0000000000
N       0.6666666667       -0.3333333333       -1.0000000000
N      -0.6666666667        0.3333333333       -1.0000000000
N       1.0000000000        0.6666666667        0.3333333333
O      -0.6666666667        1.0000000000        0.3333333333
O       0.6666666667        1.0000000000       -0.3333333333
O      -0.6666666667       -1.0000000000       -0.3333333333
O       0.6666666667       -1.0000000000        0.3333333333
O      -1.0000000000        0.3333333333        0.6666666667
O      -1.0000000000       -0.3333333333       -0.6666666667
O       1.0000000000       -0.3333333333        0.6666666667
O       1.0000000000        0.3333333333       -0.6666666667
O      -0.3333333333        0.6666666667        1.0000000000
O       0.3333333333       -0.6666666667        1.0000000000
O       0.3333333333        0.6666666667       -1.0000000000
O      -0.3333333333       -0.6666666667       -1.0000000000
P       1.0000000000       -0.3333333333       -0.6666666667
P      -1.0000000000        0.3333333333       -0.6666666667
P      -1.0000000000       -0.3333333333        0.6666666667
P       0.6666666667        1.0000000000        0.3333333333
P      -0.6666666667        1.0000000000       -0.3333333333
P      -0.6666666667       -1.0000000000        0.3333333333
P       0.6666666667       -1.0000000000       -0.3333333333
P       0.3333333333        0.6666666667        1.0000000000
P      -0.3333333333       -0.6666666667        1.0000000000
P       0.3333333333       -0.6666666667       -1.0000000000
P      -0.3333333333        0.6666666667       -1.0000000000
P      -0.3333333333        1.0000000000        0.6666666667
P       0.3333333333        1.0000000000       -0.6666666667
P      -0.3333333333       -1.0000000000       -0.6666666667
P       0.3333333333       -1.0000000000        0.6666666667
P      -1.0000000000        0.6666666667        0.3333333333
P      -1.0000000000       -0.6666666667       -0.3333333333
P       1.0000000000       -0.6666666667        0.3333333333
P       1.0000000000        0.6666666667       -0.3333333333
P      -0.6666666667        0.3333333333        1.0000000000
P       0.6666666667       -0.3333333333        1.0000000000
P       0.6666666667        0.3333333333       -1.0000000000
P      -0.6666666667       -0.3333333333       -1.0000000000
P       1.0000000000        0.3333333333        0.6666666667
